
     RDKit          3D

  8  8  0  0  0  0  0  0  0  0999 V2000
   17.0550   13.7902  -15.7944 C   0  0  0  0  0  0  0  0  0  0  0  0
   15.8599   13.4015  -16.0331 C   0  0  0  0  0  0  0  0  0  0  0  0
   17.7324   14.4997  -16.5382 C   0  0  0  0  0  0  0  0  0  0  0  0
   15.0137   12.5500  -15.1150 F   0  0  0  0  0  0  0  0  0  0  0  0
   17.1642   14.9324  -17.7700 C   0  0  0  0  0  0  0  0  0  0  0  0
   15.0771   13.6700  -17.1840 C   0  0  0  0  0  0  0  0  0  0  0  0
   17.8955   15.8111  -18.7285 F   0  0  0  0  0  0  0  0  0  0  0  0
   15.8547   14.5322  -18.1279 C   0  0  0  0  0  0  0  0  0  0  0  0
  1  2  1  0
  1  3  2  0
  2  4  1  0
  3  5  1  0
  2  6  2  0
  5  7  1  0
  5  8  2  0
  6  8  1  0
M  END
$$$$

     RDKit          3D

  8  8  0  0  0  0  0  0  0  0999 V2000
   16.9164   12.9958  -15.1088 C   0  0  0  0  0  0  0  0  0  0  0  0
   17.3100   14.0594  -15.5556 C   0  0  0  0  0  0  0  0  0  0  0  0
   15.7326   12.3414  -15.5303 C   0  0  0  0  0  0  0  0  0  0  0  0
   18.4583   14.7855  -15.1257 F   0  0  0  0  0  0  0  0  0  0  0  0
   16.6987   14.6187  -16.8128 C   0  0  0  0  0  0  0  0  0  0  0  0
   17.2271   15.8163  -17.4954 C   0  0  0  0  0  0  0  0  0  0  0  0
   15.5576   13.9338  -17.3647 C   0  0  0  0  0  0  0  0  0  0  0  0
   15.0990   12.7969  -16.7073 C   0  0  0  0  0  0  0  0  0  0  0  0
  1  2  2  0
  1  3  1  0
  2  4  1  0
  2  5  1  0
  5  6  1  0
  5  7  2  0
  3  8  2  0
  7  8  1  0
M  END
$$$$

     RDKit          3D

  8  8  0  0  0  0  0  0  0  0999 V2000
   16.9164   12.9958  -15.1088 C   0  0  0  0  0  0  0  0  0  0  0  0
   17.3100   14.0594  -15.5556 C   0  0  0  0  0  0  0  0  0  0  0  0
   16.7892   14.5169  -16.7668 C   0  0  0  0  0  0  0  0  0  0  0  0
   17.3321   15.7842  -17.4474 C   0  0  0  0  0  0  0  0  0  0  0  0
   15.6598   13.8803  -17.3967 C   0  0  0  0  0  0  0  0  0  0  0  0
   15.7137   12.3218  -15.5678 C   0  0  0  0  0  0  0  0  0  0  0  0
   15.1472   12.7705  -16.7602 C   0  0  0  0  0  0  0  0  0  0  0  0
   17.7856   16.3550  -18.1458 N   0  0  0  0  0  0  0  0  0  0  0  0
  1  2  1  0
  2  3  2  0
  3  4  1  0
  3  5  1  0
  1  6  2  0
  5  7  2  0
  6  7  1  0
  4  8  3  0
M  END
$$$$

     RDKit          3D

  8  8  0  0  0  0  0  0  0  0999 V2000
   16.9164   12.9958  -15.1088 C   0  0  0  0  0  0  0  0  0  0  0  0
   17.3100   14.0594  -15.5556 C   0  0  0  0  0  0  0  0  0  0  0  0
   15.7326   12.3414  -15.5303 C   0  0  0  0  0  0  0  0  0  0  0  0
   15.0710   12.8938  -16.5894 C   0  0  0  0  0  0  0  0  0  0  0  0
   16.6524   14.6503  -16.7127 C   0  0  0  0  0  0  0  0  0  0  0  0
   17.1845   15.8920  -17.3281 C   0  0  0  0  0  0  0  0  0  0  0  0
   13.8518   12.2776  -17.1370 O   0  0  0  0  0  0  0  0  0  0  0  0
   15.5006   14.0403  -17.2225 C   0  0  0  0  0  0  0  0  0  0  0  0
  1  2  2  0
  1  3  1  0
  3  4  2  0
  2  5  1  0
  5  6  1  0
  4  7  1  0
  4  8  1  0
  5  8  2  0
M  END
$$$$

     RDKit          3D

  9  9  0  0  0  0  0  0  0  0999 V2000
   17.0550   13.7902  -15.7944 C   0  0  0  0  0  0  0  0  0  0  0  0
   15.8599   13.4015  -16.0331 C   0  0  0  0  0  0  0  0  0  0  0  0
   17.7087   14.6500  -16.6864 C   0  0  0  0  0  0  0  0  0  0  0  0
   17.0229   14.9790  -17.8289 C   0  0  0  0  0  0  0  0  0  0  0  0
   17.6673   15.9097  -18.8467 C   0  0  0  0  0  0  0  0  0  0  0  0
   18.1592   15.6062  -19.7988 O   0  0  0  0  0  0  0  0  0  0  0  0
   15.7650   14.3941  -18.0782 C   0  0  0  0  0  0  0  0  0  0  0  0
   15.2064   13.5465  -17.1566 C   0  0  0  0  0  0  0  0  0  0  0  0
   17.5485   17.1992  -18.5532 N   0  0  0  0  0  0  0  0  0  0  0  0
  1  2  1  0
  1  3  2  0
  3  4  1  0
  4  5  1  0
  5  6  2  0
  4  7  2  0
  2  8  2  0
  7  8  1  0
  5  9  1  0
M  END
$$$$

     RDKit          3D

  9  9  0  0  0  0  0  0  0  0999 V2000
   16.9164   12.9958  -15.1088 C   0  0  0  0  0  0  0  0  0  0  0  0
   15.8006   12.6958  -15.6501 C   0  0  0  0  0  0  0  0  0  0  0  0
   15.4564   13.0857  -16.8817 C   0  0  0  0  0  0  0  0  0  0  0  0
   17.5786   14.0594  -15.8886 C   0  0  0  0  0  0  0  0  0  0  0  0
   17.1797   14.5884  -17.0271 C   0  0  0  0  0  0  0  0  0  0  0  0
   16.0318   14.0337  -17.5880 C   0  0  0  0  0  0  0  0  0  0  0  0
   15.4912   14.5151  -18.8622 C   0  0  0  0  0  0  0  0  0  0  0  0
   14.9438   15.5226  -18.9472 O   0  0  0  0  0  0  0  0  0  0  0  0
   15.6245   13.7319  -19.9172 O   0  0  0  0  0  0  0  0  0  0  0  0
  1  2  2  0
  2  3  1  0
  1  4  1  0
  4  5  2  0
  3  6  2  0
  5  6  1  0
  6  7  1  0
  7  8  1  0
  7  9  2  0
M  END
$$$$

     RDKit          3D

  9  9  0  0  0  0  0  0  0  0999 V2000
   16.9164   12.9958  -15.1088 C   0  0  0  0  0  0  0  0  0  0  0  0
   17.3100   14.0594  -15.5556 C   0  0  0  0  0  0  0  0  0  0  0  0
   18.3666   14.8571  -15.0574 F   0  0  0  0  0  0  0  0  0  0  0  0
   15.7502   12.3064  -15.6047 C   0  0  0  0  0  0  0  0  0  0  0  0
   15.0934   12.8521  -16.6708 C   0  0  0  0  0  0  0  0  0  0  0  0
   16.7079   14.6414  -16.7731 C   0  0  0  0  0  0  0  0  0  0  0  0
   13.9444   12.1602  -17.2482 O   0  0  0  0  0  0  0  0  0  0  0  0
   17.1807   15.8635  -17.3479 F   0  0  0  0  0  0  0  0  0  0  0  0
   15.6083   14.0304  -17.4470 C   0  0  0  0  0  0  0  0  0  0  0  0
  1  2  2  0
  2  3  1  0
  1  4  1  0
  4  5  2  0
  2  6  1  0
  5  7  1  0
  6  8  1  0
  5  9  1  0
  6  9  2  0
M  END
$$$$

     RDKit          3D

  9  9  0  0  0  0  0  0  0  0999 V2000
   16.9164   12.9958  -15.1088 C   0  0  0  0  0  0  0  0  0  0  0  0
   17.3100   14.0594  -15.5556 C   0  0  0  0  0  0  0  0  0  0  0  0
   16.7445   14.6581  -16.7217 C   0  0  0  0  0  0  0  0  0  0  0  0
   17.3328   12.4657  -13.8082 O   0  0  0  0  0  0  0  0  0  0  0  0
   15.6816   12.3038  -15.6100 C   0  0  0  0  0  0  0  0  0  0  0  0
   17.3376   15.8437  -17.3845 C   0  0  0  0  0  0  0  0  0  0  0  0
   15.5825   13.9229  -17.3006 C   0  0  0  0  0  0  0  0  0  0  0  0
   15.1594   11.1943  -14.9355 O   0  0  0  0  0  0  0  0  0  0  0  0
   15.0768   12.8507  -16.7259 C   0  0  0  0  0  0  0  0  0  0  0  0
  1  2  1  0
  2  3  2  0
  1  4  1  0
  1  5  2  0
  3  6  1  0
  3  7  1  0
  5  8  1  0
  5  9  1  0
  7  9  2  0
M  END
$$$$

     RDKit          3D

  9  9  0  0  0  0  0  0  0  0999 V2000
   16.9164   12.9958  -15.1088 C   0  0  0  0  0  0  0  0  0  0  0  0
   17.3100   14.0594  -15.5556 C   0  0  0  0  0  0  0  0  0  0  0  0
   15.7150   12.5123  -15.7129 C   0  0  0  0  0  0  0  0  0  0  0  0
   15.1202   13.0473  -16.8329 C   0  0  0  0  0  0  0  0  0  0  0  0
   13.9456   12.5358  -17.4163 C   0  0  0  0  0  0  0  0  0  0  0  0
   16.8473   14.7589  -16.7358 C   0  0  0  0  0  0  0  0  0  0  0  0
   13.8910   12.4359  -18.6775 O   0  0  0  0  0  0  0  0  0  0  0  0
   17.5297   15.9561  -17.2788 F   0  0  0  0  0  0  0  0  0  0  0  0
   15.7287   14.2349  -17.3643 C   0  0  0  0  0  0  0  0  0  0  0  0
  1  2  1  0
  1  3  2  0
  3  4  1  0
  4  5  1  0
  2  6  2  0
  5  7  2  0
  6  8  1  0
  4  9  2  0
  6  9  1  0
M  END
$$$$

     RDKit          3D

  9  9  0  0  0  0  0  0  0  0999 V2000
   16.9164   12.9958  -15.1088 C   0  0  0  0  0  0  0  0  0  0  0  0
   17.3100   14.0594  -15.5556 C   0  0  0  0  0  0  0  0  0  0  0  0
   16.7445   14.6581  -16.7217 C   0  0  0  0  0  0  0  0  0  0  0  0
   17.3328   12.4657  -13.8082 O   0  0  0  0  0  0  0  0  0  0  0  0
   15.6816   12.3038  -15.6100 C   0  0  0  0  0  0  0  0  0  0  0  0
   17.3376   15.8437  -17.3845 C   0  0  0  0  0  0  0  0  0  0  0  0
   15.5825   13.9229  -17.3006 C   0  0  0  0  0  0  0  0  0  0  0  0
   18.2702   16.2717  -17.1869 O   0  0  0  0  0  0  0  0  0  0  0  0
   15.1566   12.8255  -16.7760 C   0  0  0  0  0  0  0  0  0  0  0  0
  1  2  1  0
  2  3  2  0
  1  4  1  0
  1  5  2  0
  3  6  1  0
  3  7  1  0
  6  8  2  0
  5  9  1  0
  7  9  2  0
M  END
$$$$

     RDKit          3D

  9  9  0  0  0  0  0  0  0  0999 V2000
   16.9164   12.9958  -15.1088 C   0  0  0  0  0  0  0  0  0  0  0  0
   17.3100   14.0594  -15.5556 C   0  0  0  0  0  0  0  0  0  0  0  0
   16.7446   14.4886  -16.7872 C   0  0  0  0  0  0  0  0  0  0  0  0
   15.7612   13.7146  -17.3367 C   0  0  0  0  0  0  0  0  0  0  0  0
   17.2973   15.7830  -17.5947 C   0  0  0  0  0  0  0  0  0  0  0  0
   15.4143   12.5729  -16.3823 C   0  0  0  0  0  0  0  0  0  0  0  0
   17.5231   12.7081  -13.7301 O   0  0  0  0  0  0  0  0  0  0  0  0
   14.1849   11.8763  -17.0944 O   0  0  0  0  0  0  0  0  0  0  0  0
   15.8549   12.2540  -15.3920 C   0  0  0  0  0  0  0  0  0  0  0  0
  1  2  2  0
  2  3  1  0
  3  4  2  0
  3  5  1  0
  4  6  1  0
  1  7  1  0
  6  8  1  0
  1  9  1  0
  6  9  2  0
M  END
$$$$

     RDKit          3D

 10 11  0  0  0  0  0  0  0  0999 V2000
   16.9164   12.9958  -15.1088 C   0  0  0  0  0  0  0  0  0  0  0  0
   17.3100   14.0594  -15.5556 C   0  0  0  0  0  0  0  0  0  0  0  0
   16.7446   14.4886  -16.7872 C   0  0  0  0  0  0  0  0  0  0  0  0
   15.7755   12.2691  -15.5518 C   0  0  0  0  0  0  0  0  0  0  0  0
   15.1407   12.7396  -16.7279 C   0  0  0  0  0  0  0  0  0  0  0  0
   17.2756   15.7758  -17.4564 C   0  0  0  0  0  0  0  0  0  0  0  0
   16.7750   16.0648  -18.6022 C   0  0  0  0  0  0  0  0  0  0  0  0
   15.6263   13.8844  -17.3495 C   0  0  0  0  0  0  0  0  0  0  0  0
   15.2046   14.4608  -18.6767 C   0  0  0  0  0  0  0  0  0  0  0  0
   15.6788   15.4751  -19.2254 C   0  0  0  0  0  0  0  0  0  0  0  0
  1  2  2  0
  2  3  1  0
  1  4  1  0
  4  5  2  0
  3  6  1  0
  6  7  2  0
  3  8  2  0
  5  8  1  0
  8  9  1  0
  7 10  1  0
  9 10  2  0
M  END
$$$$

     RDKit          3D

 10 10  0  0  0  0  0  0  0  0999 V2000
   16.9164   12.9958  -15.1088 C   0  0  0  0  0  0  0  0  0  0  0  0
   17.3100   14.0594  -15.5556 C   0  0  0  0  0  0  0  0  0  0  0  0
   15.7326   12.3414  -15.5303 C   0  0  0  0  0  0  0  0  0  0  0  0
   18.4583   14.7855  -15.1257 F   0  0  0  0  0  0  0  0  0  0  0  0
   16.6987   14.6187  -16.8128 C   0  0  0  0  0  0  0  0  0  0  0  0
   17.2271   15.8163  -17.4954 C   0  0  0  0  0  0  0  0  0  0  0  0
   15.5576   13.9338  -17.3647 C   0  0  0  0  0  0  0  0  0  0  0  0
   17.7215   16.6660  -17.1586 O   0  0  0  0  0  0  0  0  0  0  0  0
   15.0999   12.8479  -16.6708 C   0  0  0  0  0  0  0  0  0  0  0  0
   16.9680   15.7707  -18.9192 N   0  0  0  0  0  0  0  0  0  0  0  0
  1  2  2  0
  1  3  1  0
  2  4  1  0
  2  5  1  0
  5  6  1  0
  5  7  2  0
  6  8  2  0
  3  9  2  0
  7  9  1  0
  6 10  1  0
M  END
$$$$

     RDKit          3D

 10 11  0  0  0  0  0  0  0  0999 V2000
   16.9164   12.9958  -15.1088 C   0  0  0  0  0  0  0  0  0  0  0  0
   17.3100   14.0594  -15.5556 C   0  0  0  0  0  0  0  0  0  0  0  0
   16.7446   14.4886  -16.7872 C   0  0  0  0  0  0  0  0  0  0  0  0
   15.7612   13.7146  -17.3367 C   0  0  0  0  0  0  0  0  0  0  0  0
   15.7944   12.2328  -15.5053 C   0  0  0  0  0  0  0  0  0  0  0  0
   15.0811   14.2070  -18.6303 C   0  0  0  0  0  0  0  0  0  0  0  0
   14.0363   13.7002  -18.9841 N   0  0  0  0  0  0  0  0  0  0  0  0
   13.3135   12.7838  -18.2891 C   0  0  0  0  0  0  0  0  0  0  0  0
   13.8877   12.2659  -17.0933 N   0  0  0  0  0  0  0  0  0  0  0  0
   15.0899   12.7880  -16.6513 C   0  0  0  0  0  0  0  0  0  0  0  0
  1  2  2  0
  2  3  1  0
  3  4  2  0
  1  5  1  0
  4  6  1  0
  6  7  2  0
  7  8  1  0
  8  9  2  0
  4 10  1  0
  5 10  2  0
  9 10  1  0
M  END
$$$$

     RDKit          3D

 10 11  0  0  0  0  0  0  0  0999 V2000
   16.9164   12.9958  -15.1088 C   0  0  0  0  0  0  0  0  0  0  0  0
   15.8006   12.6958  -15.6501 C   0  0  0  0  0  0  0  0  0  0  0  0
   15.3466   13.2197  -16.8853 C   0  0  0  0  0  0  0  0  0  0  0  0
   16.2086   14.1110  -17.5095 C   0  0  0  0  0  0  0  0  0  0  0  0
   15.8132   14.7316  -18.7939 C   0  0  0  0  0  0  0  0  0  0  0  0
   16.5818   15.5541  -19.3484 C   0  0  0  0  0  0  0  0  0  0  0  0
   17.8291   15.8603  -18.5872 C   0  0  0  0  0  0  0  0  0  0  0  0
   18.1705   15.4037  -17.4352 N   0  0  0  0  0  0  0  0  0  0  0  0
   17.3974   14.5814  -16.8046 C   0  0  0  0  0  0  0  0  0  0  0  0
   17.7216   14.0163  -15.6170 C   0  0  0  0  0  0  0  0  0  0  0  0
  1  2  1  0
  2  3  2  0
  3  4  1  0
  4  5  1  0
  5  6  2  0
  6  7  1  0
  7  8  2  0
  4  9  2  0
  8  9  1  0
  1 10  2  0
  9 10  1  0
M  END
$$$$

     RDKit          3D

 10 10  0  0  0  0  0  0  0  0999 V2000
   16.9164   12.9958  -15.1088 C   0  0  0  0  0  0  0  0  0  0  0  0
   17.3100   14.0594  -15.5556 C   0  0  0  0  0  0  0  0  0  0  0  0
   16.7446   14.4886  -16.7872 C   0  0  0  0  0  0  0  0  0  0  0  0
   15.7755   12.2691  -15.5518 C   0  0  0  0  0  0  0  0  0  0  0  0
   17.2677   15.7375  -17.5054 C   0  0  0  0  0  0  0  0  0  0  0  0
   15.2464   11.1435  -14.8995 C   0  0  0  0  0  0  0  0  0  0  0  0
   15.2270   12.8212  -16.7527 C   0  0  0  0  0  0  0  0  0  0  0  0
   15.6699   13.8847  -17.3713 C   0  0  0  0  0  0  0  0  0  0  0  0
   15.9913   10.2562  -14.6514 O   0  0  0  0  0  0  0  0  0  0  0  0
   14.0652   11.2816  -14.3396 O   0  0  0  0  0  0  0  0  0  0  0  0
  1  2  2  0
  2  3  1  0
  1  4  1  0
  3  5  1  0
  4  6  1  0
  4  7  2  0
  3  8  2  0
  7  8  1  0
  6  9  2  0
  6 10  1  0
M  END
$$$$

     RDKit          3D

 10 11  0  0  0  0  0  0  0  0999 V2000
   16.9164   12.9958  -15.1088 C   0  0  0  0  0  0  0  0  0  0  0  0
   15.8006   12.6958  -15.6501 C   0  0  0  0  0  0  0  0  0  0  0  0
   15.3466   13.2197  -16.8853 C   0  0  0  0  0  0  0  0  0  0  0  0
   17.5403   14.1336  -15.6884 C   0  0  0  0  0  0  0  0  0  0  0  0
   14.0582   12.7399  -17.5012 C   0  0  0  0  0  0  0  0  0  0  0  0
   13.6318   13.4418  -18.5654 N   0  0  0  0  0  0  0  0  0  0  0  0
   14.4454   14.3586  -19.1541 C   0  0  0  0  0  0  0  0  0  0  0  0
   15.5924   14.8730  -18.5885 C   0  0  0  0  0  0  0  0  0  0  0  0
   16.0729   14.4077  -17.3615 C   0  0  0  0  0  0  0  0  0  0  0  0
   17.1891   14.7762  -16.7852 C   0  0  0  0  0  0  0  0  0  0  0  0
  1  2  1  0
  2  3  2  0
  1  4  2  0
  3  5  1  0
  5  6  2  0
  6  7  1  0
  7  8  2  0
  3  9  1  0
  8  9  1  0
  4 10  1  0
  9 10  2  0
M  END
$$$$

     RDKit          3D

 10 10  0  0  0  0  0  0  0  0999 V2000
   17.0550   13.7902  -15.7944 C   0  0  0  0  0  0  0  0  0  0  0  0
   15.8599   13.4015  -16.0331 C   0  0  0  0  0  0  0  0  0  0  0  0
   17.7147   13.4314  -14.5959 F   0  0  0  0  0  0  0  0  0  0  0  0
   17.7786   14.6850  -16.6173 C   0  0  0  0  0  0  0  0  0  0  0  0
   15.1685   13.6859  -17.2377 C   0  0  0  0  0  0  0  0  0  0  0  0
   17.0811   15.1043  -17.8316 C   0  0  0  0  0  0  0  0  0  0  0  0
   17.7708   16.0053  -18.7335 C   0  0  0  0  0  0  0  0  0  0  0  0
   17.4495   16.0085  -19.9105 N   0  0  0  0  0  0  0  0  0  0  0  0
   15.8304   14.5610  -18.1372 C   0  0  0  0  0  0  0  0  0  0  0  0
   18.3590   17.0441  -18.3005 O   0  0  0  0  0  0  0  0  0  0  0  0
  1  2  1  0
  1  3  1  0
  1  4  2  0
  2  5  2  0
  4  6  1  0
  6  7  1  0
  7  8  1  0
  5  9  1  0
  6  9  2  0
  7 10  2  0
M  END
$$$$

     RDKit          3D

 11 12  0  0  0  0  0  0  0  0999 V2000
   16.9164   12.9958  -15.1088 C   0  0  0  0  0  0  0  0  0  0  0  0
   15.8006   12.6958  -15.6501 C   0  0  0  0  0  0  0  0  0  0  0  0
   14.7476   11.9962  -15.0575 F   0  0  0  0  0  0  0  0  0  0  0  0
   15.4503   13.0624  -17.0348 C   0  0  0  0  0  0  0  0  0  0  0  0
   14.1512   12.8538  -17.5695 C   0  0  0  0  0  0  0  0  0  0  0  0
   13.9956   13.2074  -18.9224 C   0  0  0  0  0  0  0  0  0  0  0  0
   14.9769   13.9449  -19.6020 C   0  0  0  0  0  0  0  0  0  0  0  0
   17.7520   13.9564  -15.8340 C   0  0  0  0  0  0  0  0  0  0  0  0
   17.4701   14.3499  -17.0770 C   0  0  0  0  0  0  0  0  0  0  0  0
   16.0876   14.3790  -18.9961 C   0  0  0  0  0  0  0  0  0  0  0  0
   16.3496   13.9777  -17.6841 C   0  0  0  0  0  0  0  0  0  0  0  0
  1  2  2  0
  2  3  1  0
  2  4  1  0
  4  5  1  0
  5  6  2  0
  6  7  1  0
  1  8  1  0
  8  9  2  0
  7 10  2  0
  4 11  2  0
  9 11  1  0
 10 11  1  0
M  END
$$$$

     RDKit          3D

 11 12  0  0  0  0  0  0  0  0999 V2000
   16.9164   12.9958  -15.1088 C   0  0  0  0  0  0  0  0  0  0  0  0
   17.3100   14.0594  -15.5556 C   0  0  0  0  0  0  0  0  0  0  0  0
   15.7326   12.3414  -15.5303 C   0  0  0  0  0  0  0  0  0  0  0  0
   16.7307   14.5633  -16.7386 C   0  0  0  0  0  0  0  0  0  0  0  0
   17.2691   15.7930  -17.4441 C   0  0  0  0  0  0  0  0  0  0  0  0
   15.0885   12.9091  -16.6221 C   0  0  0  0  0  0  0  0  0  0  0  0
   16.7577   16.0994  -18.5732 C   0  0  0  0  0  0  0  0  0  0  0  0
   13.9026   12.2671  -17.1910 O   0  0  0  0  0  0  0  0  0  0  0  0
   15.6303   15.5277  -19.1570 C   0  0  0  0  0  0  0  0  0  0  0  0
   15.5507   13.9463  -17.3041 C   0  0  0  0  0  0  0  0  0  0  0  0
   15.0357   14.4334  -18.5271 C   0  0  0  0  0  0  0  0  0  0  0  0
  1  2  2  0
  1  3  1  0
  2  4  1  0
  4  5  1  0
  3  6  2  0
  5  7  2  0
  6  8  1  0
  7  9  1  0
  4 10  2  0
  6 10  1  0
  9 11  2  0
 10 11  1  0
M  END
$$$$

     RDKit          3D

 11 12  0  0  0  0  0  0  0  0999 V2000
   16.9164   12.9958  -15.1088 C   0  0  0  0  0  0  0  0  0  0  0  0
   17.3100   14.0594  -15.5556 C   0  0  0  0  0  0  0  0  0  0  0  0
   16.7446   14.4886  -16.7872 C   0  0  0  0  0  0  0  0  0  0  0  0
   15.7612   13.7146  -17.3367 C   0  0  0  0  0  0  0  0  0  0  0  0
   15.7944   12.2328  -15.5053 C   0  0  0  0  0  0  0  0  0  0  0  0
   15.0811   14.2070  -18.6303 C   0  0  0  0  0  0  0  0  0  0  0  0
   14.0363   13.7002  -18.9841 N   0  0  0  0  0  0  0  0  0  0  0  0
   13.3135   12.7838  -18.2891 C   0  0  0  0  0  0  0  0  0  0  0  0
   13.8877   12.2659  -17.0933 N   0  0  0  0  0  0  0  0  0  0  0  0
   15.7977   15.0635  -19.4322 N   0  0  0  0  0  0  0  0  0  0  0  0
   15.1439   12.6410  -16.6911 C   0  0  0  0  0  0  0  0  0  0  0  0
  1  2  2  0
  2  3  1  0
  3  4  2  0
  1  5  1  0
  4  6  1  0
  6  7  2  0
  7  8  1  0
  8  9  2  0
  6 10  1  0
  4 11  1  0
  5 11  2  0
  9 11  1  0
M  END
$$$$

     RDKit          3D

 11 12  0  0  0  0  0  0  0  0999 V2000
   16.9164   12.9958  -15.1088 C   0  0  0  0  0  0  0  0  0  0  0  0
   17.3100   14.0594  -15.5556 C   0  0  0  0  0  0  0  0  0  0  0  0
   17.4406   12.4092  -13.9216 O   0  0  0  0  0  0  0  0  0  0  0  0
   16.8447   14.6334  -16.7777 C   0  0  0  0  0  0  0  0  0  0  0  0
   17.4060   15.8574  -17.3788 C   0  0  0  0  0  0  0  0  0  0  0  0
   15.7311   13.9688  -17.4278 C   0  0  0  0  0  0  0  0  0  0  0  0
   15.7508   12.2697  -15.6741 C   0  0  0  0  0  0  0  0  0  0  0  0
   15.2177   12.8056  -16.8543 C   0  0  0  0  0  0  0  0  0  0  0  0
   15.2493   14.6285  -18.6675 C   0  0  0  0  0  0  0  0  0  0  0  0
   15.8310   15.4063  -19.4063 C   0  0  0  0  0  0  0  0  0  0  0  0
   17.0895   16.0578  -18.8306 C   0  0  0  0  0  0  0  0  0  0  0  0
  1  2  2  0
  1  3  1  0
  2  4  1  0
  4  5  1  0
  4  6  2  0
  1  7  1  0
  6  8  1  0
  7  8  2  0
  6  9  1  0
  9 10  2  0
  5 11  2  0
 10 11  1  0
M  END
$$$$

     RDKit          3D

 11 12  0  0  0  0  0  0  0  0999 V2000
   17.0550   13.7902  -15.7944 C   0  0  0  0  0  0  0  0  0  0  0  0
   15.8599   13.4015  -16.0331 C   0  0  0  0  0  0  0  0  0  0  0  0
   17.7147   13.4314  -14.5959 F   0  0  0  0  0  0  0  0  0  0  0  0
   17.7786   14.6850  -16.6173 C   0  0  0  0  0  0  0  0  0  0  0  0
   17.1405   15.0336  -17.8353 C   0  0  0  0  0  0  0  0  0  0  0  0
   15.1844   13.7039  -17.2611 C   0  0  0  0  0  0  0  0  0  0  0  0
   17.8305   15.9643  -18.7493 C   0  0  0  0  0  0  0  0  0  0  0  0
   17.5392   15.9400  -19.9315 N   0  0  0  0  0  0  0  0  0  0  0  0
   16.3145   15.5432  -20.4104 C   0  0  0  0  0  0  0  0  0  0  0  0
   15.4635   14.7586  -19.5790 C   0  0  0  0  0  0  0  0  0  0  0  0
   15.7960   14.4613  -18.1836 C   0  0  0  0  0  0  0  0  0  0  0  0
  1  2  1  0
  1  3  1  0
  1  4  2  0
  4  5  1  0
  2  6  2  0
  5  7  1  0
  7  8  2  0
  8  9  1  0
  9 10  2  0
  5 11  2  0
  6 11  1  0
 10 11  1  0
M  END
$$$$

     RDKit          3D

 11 12  0  0  0  0  0  0  0  0999 V2000
   16.9164   12.9958  -15.1088 C   0  0  0  0  0  0  0  0  0  0  0  0
   17.3100   14.0594  -15.5556 C   0  0  0  0  0  0  0  0  0  0  0  0
   18.3666   14.8571  -15.0574 F   0  0  0  0  0  0  0  0  0  0  0  0
   15.6944   12.5040  -15.8447 C   0  0  0  0  0  0  0  0  0  0  0  0
   15.1770   13.1098  -16.8618 C   0  0  0  0  0  0  0  0  0  0  0  0
   13.9775   12.5584  -17.5301 C   0  0  0  0  0  0  0  0  0  0  0  0
   13.8112   12.7052  -18.7816 C   0  0  0  0  0  0  0  0  0  0  0  0
   16.7996   14.7906  -16.7995 C   0  0  0  0  0  0  0  0  0  0  0  0
   14.5575   13.5894  -19.6459 C   0  0  0  0  0  0  0  0  0  0  0  0
   15.6383   14.2827  -17.4908 C   0  0  0  0  0  0  0  0  0  0  0  0
   15.4339   14.5406  -18.8924 C   0  0  0  0  0  0  0  0  0  0  0  0
  1  2  2  0
  2  3  1  0
  1  4  1  0
  4  5  2  0
  5  6  1  0
  6  7  2  0
  2  8  1  0
  7  9  1  0
  5 10  1  0
  8 10  2  0
  9 11  2  0
 10 11  1  0
M  END
$$$$

     RDKit          3D

 12 13  0  0  0  0  0  0  0  0999 V2000
   16.9164   12.9958  -15.1088 C   0  0  0  0  0  0  0  0  0  0  0  0
   17.3100   14.0594  -15.5556 C   0  0  0  0  0  0  0  0  0  0  0  0
   15.7326   12.3414  -15.5303 C   0  0  0  0  0  0  0  0  0  0  0  0
   16.7307   14.5633  -16.7386 C   0  0  0  0  0  0  0  0  0  0  0  0
   17.2691   15.7930  -17.4441 C   0  0  0  0  0  0  0  0  0  0  0  0
   18.2441   16.3363  -17.1466 O   0  0  0  0  0  0  0  0  0  0  0  0
   16.5081   16.3042  -18.4391 N   0  0  0  0  0  0  0  0  0  0  0  0
   15.5789   13.9120  -17.3178 C   0  0  0  0  0  0  0  0  0  0  0  0
   15.2525   11.1878  -14.8948 N   0  0  0  0  0  0  0  0  0  0  0  0
   14.9117   14.3979  -18.4956 C   0  0  0  0  0  0  0  0  0  0  0  0
   15.3923   15.6212  -19.0365 C   0  0  0  0  0  0  0  0  0  0  0  0
   15.0961   12.7968  -16.6845 C   0  0  0  0  0  0  0  0  0  0  0  0
  1  2  2  0
  1  3  1  0
  2  4  1  0
  4  5  1  0
  5  6  2  0
  5  7  1  0
  4  8  2  0
  3  9  1  0
  8 10  1  0
  7 11  1  0
 10 11  2  0
  3 12  2  0
  8 12  1  0
M  END
$$$$

     RDKit          3D

 12 13  0  0  0  0  0  0  0  0999 V2000
   16.9164   12.9958  -15.1088 C   0  0  0  0  0  0  0  0  0  0  0  0
   15.8006   12.6958  -15.6501 C   0  0  0  0  0  0  0  0  0  0  0  0
   15.4107   12.9983  -16.7661 C   0  0  0  0  0  0  0  0  0  0  0  0
   16.1210   13.9196  -17.6013 C   0  0  0  0  0  0  0  0  0  0  0  0
   15.6921   14.4151  -18.8780 C   0  0  0  0  0  0  0  0  0  0  0  0
   17.2827   12.7002  -13.7773 O   0  0  0  0  0  0  0  0  0  0  0  0
   16.3657   15.2591  -19.5136 C   0  0  0  0  0  0  0  0  0  0  0  0
   17.3154   14.4515  -16.9588 C   0  0  0  0  0  0  0  0  0  0  0  0
   14.5237   13.8983  -19.4234 C   0  0  0  0  0  0  0  0  0  0  0  0
   14.4809   14.6339  -20.7569 O   0  0  0  0  0  0  0  0  0  0  0  0
   17.6925   14.0414  -15.7140 C   0  0  0  0  0  0  0  0  0  0  0  0
   15.4125   15.4374  -20.8865 C   0  0  0  0  0  0  0  0  0  0  0  0
  1  2  1  0
  2  3  2  0
  3  4  1  0
  4  5  1  0
  1  6  1  0
  5  7  1  0
  4  8  2  0
  5  9  2  0
  9 10  1  0
  1 11  2  0
  8 11  1  0
  7 12  2  0
 10 12  1  0
M  END
$$$$

     RDKit          3D

 12 13  0  0  0  0  0  0  0  0999 V2000
   16.9164   12.9958  -15.1088 C   0  0  0  0  0  0  0  0  0  0  0  0
   17.3100   14.0594  -15.5556 C   0  0  0  0  0  0  0  0  0  0  0  0
   18.3666   14.8571  -15.0574 F   0  0  0  0  0  0  0  0  0  0  0  0
   16.8201   14.6194  -16.8844 C   0  0  0  0  0  0  0  0  0  0  0  0
   15.8501   13.9286  -17.4349 C   0  0  0  0  0  0  0  0  0  0  0  0
   15.7568   12.3482  -15.7055 C   0  0  0  0  0  0  0  0  0  0  0  0
   15.2423   14.4121  -18.7593 C   0  0  0  0  0  0  0  0  0  0  0  0
   14.2195   13.8692  -19.1988 N   0  0  0  0  0  0  0  0  0  0  0  0
   16.0772   15.1424  -19.6316 N   0  0  0  0  0  0  0  0  0  0  0  0
   13.3990   13.0343  -18.3126 C   0  0  0  0  0  0  0  0  0  0  0  0
   15.1588   12.7710  -16.9834 C   0  0  0  0  0  0  0  0  0  0  0  0
   13.9686   12.4014  -17.3273 N   0  0  0  0  0  0  0  0  0  0  0  0
  1  2  2  0
  2  3  1  0
  2  4  1  0
  4  5  2  0
  1  6  1  0
  5  7  1  0
  7  8  2  0
  7  9  1  0
  8 10  1  0
  5 11  1  0
  6 11  2  0
 10 12  2  0
 11 12  1  0
M  END
$$$$

     RDKit          3D

 12 12  0  0  0  0  0  0  0  0999 V2000
   16.9164   12.9958  -15.1088 C   0  0  0  0  0  0  0  0  0  0  0  0
   15.8006   12.6958  -15.6501 C   0  0  0  0  0  0  0  0  0  0  0  0
   14.7476   11.9962  -15.0575 F   0  0  0  0  0  0  0  0  0  0  0  0
   15.3084   13.2778  -16.9284 C   0  0  0  0  0  0  0  0  0  0  0  0
   17.2351   12.5441  -13.8661 F   0  0  0  0  0  0  0  0  0  0  0  0
   16.2116   14.1094  -17.5982 C   0  0  0  0  0  0  0  0  0  0  0  0
   17.4580   14.4825  -16.9686 C   0  0  0  0  0  0  0  0  0  0  0  0
   15.8356   14.7112  -18.9090 C   0  0  0  0  0  0  0  0  0  0  0  0
   18.2841   15.4374  -17.6684 F   0  0  0  0  0  0  0  0  0  0  0  0
   17.7981   13.9828  -15.7306 C   0  0  0  0  0  0  0  0  0  0  0  0
   15.2834   15.7111  -18.9864 O   0  0  0  0  0  0  0  0  0  0  0  0
   16.3449   14.1457  -19.9841 O   0  0  0  0  0  0  0  0  0  0  0  0
  1  2  2  0
  2  3  1  0
  2  4  1  0
  1  5  1  0
  4  6  2  0
  6  7  1  0
  6  8  1  0
  7  9  1  0
  1 10  1  0
  7 10  2  0
  8 11  1  0
  8 12  2  0
M  END
$$$$

     RDKit          3D

 12 12  0  0  0  0  0  0  0  0999 V2000
   16.9164   12.9958  -15.1088 C   0  0  0  0  0  0  0  0  0  0  0  0
   17.3100   14.0594  -15.5556 C   0  0  0  0  0  0  0  0  0  0  0  0
   16.7445   14.6581  -16.7217 C   0  0  0  0  0  0  0  0  0  0  0  0
   17.3328   12.4657  -13.8082 O   0  0  0  0  0  0  0  0  0  0  0  0
   15.6816   12.3038  -15.6100 C   0  0  0  0  0  0  0  0  0  0  0  0
   17.3376   15.8437  -17.3845 C   0  0  0  0  0  0  0  0  0  0  0  0
   15.5825   13.9229  -17.3006 C   0  0  0  0  0  0  0  0  0  0  0  0
   15.1594   11.1943  -14.9355 O   0  0  0  0  0  0  0  0  0  0  0  0
   14.7586   11.1137  -13.7683 C   0  0  0  0  0  0  0  0  0  0  0  0
   15.0201   14.4793  -18.5564 O   0  0  0  0  0  0  0  0  0  0  0  0
   15.0449   12.8107  -16.7506 C   0  0  0  0  0  0  0  0  0  0  0  0
   14.5180   13.6987  -19.2936 C   0  0  0  0  0  0  0  0  0  0  0  0
  1  2  1  0
  2  3  2  0
  1  4  1  0
  1  5  2  0
  3  6  1  0
  3  7  1  0
  5  8  1  0
  8  9  1  0
  7 10  1  0
  5 11  1  0
  7 11  2  0
 10 12  1  0
M  END
$$$$

     RDKit          3D

 13 14  0  0  0  0  0  0  0  0999 V2000
   16.9164   12.9958  -15.1088 C   0  0  0  0  0  0  0  0  0  0  0  0
   17.3100   14.0594  -15.5556 C   0  0  0  0  0  0  0  0  0  0  0  0
   16.7575   14.6385  -16.7412 C   0  0  0  0  0  0  0  0  0  0  0  0
   15.7616   13.9166  -17.3409 C   0  0  0  0  0  0  0  0  0  0  0  0
   15.7587   12.3027  -15.6043 C   0  0  0  0  0  0  0  0  0  0  0  0
   15.0981   14.4798  -18.5953 C   0  0  0  0  0  0  0  0  0  0  0  0
   14.0908   13.8762  -19.0608 C   0  0  0  0  0  0  0  0  0  0  0  0
   13.4467   14.4180  -20.2575 O   0  0  0  0  0  0  0  0  0  0  0  0
   12.3005   13.7811  -20.6360 C   0  0  0  0  0  0  0  0  0  0  0  0
   13.3713   12.7484  -18.5098 C   0  0  0  0  0  0  0  0  0  0  0  0
   15.2352   12.6904  -16.8763 C   0  0  0  0  0  0  0  0  0  0  0  0
   12.2942   12.2683  -19.1253 O   0  0  0  0  0  0  0  0  0  0  0  0
   13.9827   12.2173  -17.4130 C   0  0  0  0  0  0  0  0  0  0  0  0
  1  2  2  0
  2  3  1  0
  3  4  2  0
  1  5  1  0
  4  6  1  0
  6  7  2  0
  7  8  1  0
  8  9  1  0
  7 10  1  0
  4 11  1  0
  5 11  2  0
 10 12  2  0
 10 13  1  0
 11 13  1  0
M  END
$$$$

     RDKit          3D

 14 16  0  0  0  0  0  0  0  0999 V2000
   16.9164   12.9958  -15.1088 C   0  0  0  0  0  0  0  0  0  0  0  0
   17.3100   14.0594  -15.5556 C   0  0  0  0  0  0  0  0  0  0  0  0
   16.7575   14.6385  -16.7412 C   0  0  0  0  0  0  0  0  0  0  0  0
   15.6605   14.0269  -17.3260 C   0  0  0  0  0  0  0  0  0  0  0  0
   15.1051   12.8741  -16.7424 C   0  0  0  0  0  0  0  0  0  0  0  0
   15.0406   14.5841  -18.5068 C   0  0  0  0  0  0  0  0  0  0  0  0
   13.8424   14.1013  -18.8802 C   0  0  0  0  0  0  0  0  0  0  0  0
   15.6615   15.4404  -19.2504 C   0  0  0  0  0  0  0  0  0  0  0  0
   13.9624   12.2796  -17.2774 C   0  0  0  0  0  0  0  0  0  0  0  0
   15.0718   15.9850  -20.4143 C   0  0  0  0  0  0  0  0  0  0  0  0
   13.2965   12.9775  -18.2554 C   0  0  0  0  0  0  0  0  0  0  0  0
   13.0173   14.6151  -19.9758 C   0  0  0  0  0  0  0  0  0  0  0  0
   13.6639   15.7125  -20.6626 C   0  0  0  0  0  0  0  0  0  0  0  0
   15.6834   12.3733  -15.5652 C   0  0  0  0  0  0  0  0  0  0  0  0
  1  2  2  0
  2  3  1  0
  3  4  2  0
  4  5  1  0
  4  6  1  0
  6  7  1  0
  6  8  2  0
  5  9  1  0
  8 10  1  0
  7 11  1  0
  9 11  2  0
  7 12  2  0
 10 13  2  0
 12 13  1  0
  1 14  1  0
  5 14  2  0
M  END
$$$$

     RDKit          3D

 14 16  0  0  0  0  0  0  0  0999 V2000
   16.9164   12.9958  -15.1088 C   0  0  0  0  0  0  0  0  0  0  0  0
   15.8006   12.6958  -15.6501 C   0  0  0  0  0  0  0  0  0  0  0  0
   15.4107   12.9983  -16.7661 C   0  0  0  0  0  0  0  0  0  0  0  0
   16.1210   13.9196  -17.6013 C   0  0  0  0  0  0  0  0  0  0  0  0
   15.6921   14.4151  -18.8780 C   0  0  0  0  0  0  0  0  0  0  0  0
   17.2827   12.7002  -13.7773 O   0  0  0  0  0  0  0  0  0  0  0  0
   16.3657   15.2591  -19.5136 C   0  0  0  0  0  0  0  0  0  0  0  0
   17.3154   14.4515  -16.9588 C   0  0  0  0  0  0  0  0  0  0  0  0
   17.5707   15.7829  -19.0607 C   0  0  0  0  0  0  0  0  0  0  0  0
   18.0213   15.4533  -17.8002 C   0  0  0  0  0  0  0  0  0  0  0  0
   16.0115   15.7344  -20.7540 C   0  0  0  0  0  0  0  0  0  0  0  0
   17.6851   14.0578  -15.6938 C   0  0  0  0  0  0  0  0  0  0  0  0
   14.7394   14.9895  -21.0844 C   0  0  0  0  0  0  0  0  0  0  0  0
   14.5422   13.9945  -19.6297 C   0  0  0  0  0  0  0  0  0  0  0  0
  1  2  1  0
  2  3  2  0
  3  4  1  0
  4  5  1  0
  1  6  1  0
  5  7  1  0
  4  8  2  0
  7  9  1  0
  8 10  1  0
  9 10  2  0
  7 11  2  0
  1 12  2  0
  8 12  1  0
 11 13  1  0
  5 14  2  0
 13 14  2  0
M  END
$$$$

     RDKit          3D

 14 15  0  0  0  0  0  0  0  0999 V2000
   17.0550   13.7902  -15.7944 C   0  0  0  0  0  0  0  0  0  0  0  0
   15.8599   13.4015  -16.0331 C   0  0  0  0  0  0  0  0  0  0  0  0
   15.1524   13.7648  -17.2038 C   0  0  0  0  0  0  0  0  0  0  0  0
   13.7852   13.3829  -17.4515 O   0  0  0  0  0  0  0  0  0  0  0  0
   13.1383   13.5833  -18.4647 C   0  0  0  0  0  0  0  0  0  0  0  0
   12.4695   14.8689  -18.4389 C   0  0  0  0  0  0  0  0  0  0  0  0
   12.8134   15.8165  -19.2597 C   0  0  0  0  0  0  0  0  0  0  0  0
   11.9344   17.0501  -18.9488 C   0  0  0  0  0  0  0  0  0  0  0  0
   10.9539   17.1500  -18.1204 C   0  0  0  0  0  0  0  0  0  0  0  0
   10.6718   16.0264  -17.3079 C   0  0  0  0  0  0  0  0  0  0  0  0
   17.7080   14.6868  -16.2489 C   0  0  0  0  0  0  0  0  0  0  0  0
   17.0842   15.3678  -17.4400 C   0  0  0  0  0  0  0  0  0  0  0  0
   11.3815   14.8539  -17.4726 C   0  0  0  0  0  0  0  0  0  0  0  0
   15.8426   14.7740  -18.0246 C   0  0  0  0  0  0  0  0  0  0  0  0
  1  2  1  0
  2  3  2  0
  3  4  1  0
  4  5  1  0
  5  6  1  0
  6  7  2  0
  7  8  1  0
  8  9  2  0
  9 10  1  0
  1 11  2  0
 11 12  1  0
  6 13  1  0
 10 13  2  0
  3 14  1  0
 12 14  2  0
M  END
$$$$

     RDKit          3D

 14 15  0  0  0  0  0  0  0  0999 V2000
   16.9164   12.9958  -15.1088 C   0  0  0  0  0  0  0  0  0  0  0  0
   17.3100   14.0594  -15.5556 C   0  0  0  0  0  0  0  0  0  0  0  0
   18.3155   14.8891  -15.0270 F   0  0  0  0  0  0  0  0  0  0  0  0
   16.8804   14.5938  -16.8850 C   0  0  0  0  0  0  0  0  0  0  0  0
   15.8150   13.8634  -17.5018 C   0  0  0  0  0  0  0  0  0  0  0  0
   15.2687   14.2811  -18.7474 C   0  0  0  0  0  0  0  0  0  0  0  0
   15.3917   12.8017  -16.7612 C   0  0  0  0  0  0  0  0  0  0  0  0
   14.1203   13.7803  -19.0763 C   0  0  0  0  0  0  0  0  0  0  0  0
   15.9472   15.1249  -19.5682 C   0  0  0  0  0  0  0  0  0  0  0  0
   15.8438   12.3371  -15.6405 C   0  0  0  0  0  0  0  0  0  0  0  0
   17.2131   15.7498  -19.3889 C   0  0  0  0  0  0  0  0  0  0  0  0
   15.0618   15.3074  -20.8114 C   0  0  0  0  0  0  0  0  0  0  0  0
   13.8767   14.4328  -20.4498 N   0  0  0  0  0  0  0  0  0  0  0  0
   15.2439   15.9510  -21.8068 O   0  0  0  0  0  0  0  0  0  0  0  0
  1  2  1  0
  2  3  1  0
  2  4  2  0
  4  5  1  0
  5  6  1  0
  5  7  2  0
  6  8  1  0
  6  9  2  0
  1 10  2  0
  7 10  1  0
  9 11  1  0
  9 12  1  0
  8 13  2  0
 12 13  1  0
 12 14  2  0
M  END
$$$$

     RDKit          3D

 14 15  0  0  0  0  0  0  0  0999 V2000
   16.9164   12.9958  -15.1088 C   0  0  0  0  0  0  0  0  0  0  0  0
   15.8006   12.6958  -15.6501 C   0  0  0  0  0  0  0  0  0  0  0  0
   14.7476   11.9962  -15.0575 F   0  0  0  0  0  0  0  0  0  0  0  0
   15.4503   13.0624  -17.0348 C   0  0  0  0  0  0  0  0  0  0  0  0
   14.1512   12.8538  -17.5695 C   0  0  0  0  0  0  0  0  0  0  0  0
   16.4463   13.6871  -17.7949 C   0  0  0  0  0  0  0  0  0  0  0  0
   14.0229   13.0870  -18.9051 C   0  0  0  0  0  0  0  0  0  0  0  0
   16.1599   14.1720  -19.1178 C   0  0  0  0  0  0  0  0  0  0  0  0
   17.0813   14.7600  -19.8142 O   0  0  0  0  0  0  0  0  0  0  0  0
   14.8183   13.9790  -19.5812 N   0  0  0  0  0  0  0  0  0  0  0  0
   12.8356   12.9684  -19.5622 O   0  0  0  0  0  0  0  0  0  0  0  0
   17.8585   13.7568  -15.8802 C   0  0  0  0  0  0  0  0  0  0  0  0
   17.6056   14.2354  -17.1290 C   0  0  0  0  0  0  0  0  0  0  0  0
   14.6098   14.1328  -21.0493 C   0  0  0  0  0  0  0  0  0  0  0  0
  1  2  2  0
  2  3  1  0
  2  4  1  0
  4  5  1  0
  4  6  2  0
  5  7  1  0
  6  8  1  0
  8  9  2  0
  7 10  1  0
  8 10  1  0
  7 11  2  0
  1 12  1  0
  6 13  1  0
 12 13  2  0
 10 14  1  0
M  END
$$$$

     RDKit          3D

 14 15  0  0  0  0  0  0  0  0999 V2000
   16.9164   12.9958  -15.1088 C   0  0  0  0  0  0  0  0  0  0  0  0
   15.8006   12.6958  -15.6501 C   0  0  0  0  0  0  0  0  0  0  0  0
   14.7476   11.9962  -15.0575 F   0  0  0  0  0  0  0  0  0  0  0  0
   15.3084   13.2778  -16.9284 C   0  0  0  0  0  0  0  0  0  0  0  0
   17.2351   12.5441  -13.8661 F   0  0  0  0  0  0  0  0  0  0  0  0
   16.2116   14.1094  -17.5982 C   0  0  0  0  0  0  0  0  0  0  0  0
   15.8319   14.7031  -18.9542 C   0  0  0  0  0  0  0  0  0  0  0  0
   17.8342   13.9922  -15.5865 C   0  0  0  0  0  0  0  0  0  0  0  0
   15.1457   14.0891  -19.6955 O   0  0  0  0  0  0  0  0  0  0  0  0
   16.5740   15.6908  -19.3571 N   0  0  0  0  0  0  0  0  0  0  0  0
   17.4355   16.4354  -18.5435 C   0  0  0  0  0  0  0  0  0  0  0  0
   18.1519   15.7801  -17.5477 N   0  0  0  0  0  0  0  0  0  0  0  0
   17.3606   14.6095  -16.9111 C   0  0  0  0  0  0  0  0  0  0  0  0
   17.7522   17.7576  -18.6699 O   0  0  0  0  0  0  0  0  0  0  0  0
  1  2  2  0
  2  3  1  0
  2  4  1  0
  1  5  1  0
  4  6  2  0
  6  7  1  0
  1  8  1  0
  7  9  2  0
  7 10  1  0
 10 11  1  0
 11 12  1  0
  6 13  1  0
  8 13  2  0
 12 13  1  0
 11 14  2  0
M  END
$$$$

     RDKit          3D

 15 17  0  0  0  0  0  0  0  0999 V2000
   16.9164   12.9958  -15.1088 C   0  0  0  0  0  0  0  0  0  0  0  0
   17.3100   14.0594  -15.5556 C   0  0  0  0  0  0  0  0  0  0  0  0
   16.7575   14.6385  -16.7412 C   0  0  0  0  0  0  0  0  0  0  0  0
   15.6605   14.0269  -17.3260 C   0  0  0  0  0  0  0  0  0  0  0  0
   15.1051   12.8741  -16.7424 C   0  0  0  0  0  0  0  0  0  0  0  0
   15.0406   14.5841  -18.5068 C   0  0  0  0  0  0  0  0  0  0  0  0
   13.8424   14.1013  -18.8802 C   0  0  0  0  0  0  0  0  0  0  0  0
   15.6615   15.4404  -19.2504 C   0  0  0  0  0  0  0  0  0  0  0  0
   13.9624   12.2796  -17.2774 C   0  0  0  0  0  0  0  0  0  0  0  0
   15.0718   15.9850  -20.4143 C   0  0  0  0  0  0  0  0  0  0  0  0
   13.2965   12.9775  -18.2554 C   0  0  0  0  0  0  0  0  0  0  0  0
   13.0173   14.6151  -19.9758 C   0  0  0  0  0  0  0  0  0  0  0  0
   13.8029   15.5660  -20.7775 C   0  0  0  0  0  0  0  0  0  0  0  0
   17.4130   12.4662  -13.8613 F   0  0  0  0  0  0  0  0  0  0  0  0
   15.6460   12.4074  -15.4429 C   0  0  0  0  0  0  0  0  0  0  0  0
  1  2  2  0
  2  3  1  0
  3  4  2  0
  4  5  1  0
  4  6  1  0
  6  7  1  0
  6  8  2  0
  5  9  1  0
  8 10  1  0
  7 11  1  0
  9 11  2  0
  7 12  2  0
 10 13  2  0
 12 13  1  0
  1 14  1  0
  1 15  1  0
  5 15  2  0
M  END
$$$$

     RDKit          3D

 15 17  0  0  0  0  0  0  0  0999 V2000
   16.9164   12.9958  -15.1088 C   0  0  0  0  0  0  0  0  0  0  0  0
   15.8006   12.6958  -15.6501 C   0  0  0  0  0  0  0  0  0  0  0  0
   15.4107   12.9983  -16.7661 C   0  0  0  0  0  0  0  0  0  0  0  0
   16.1210   13.9196  -17.6013 C   0  0  0  0  0  0  0  0  0  0  0  0
   15.6921   14.4151  -18.8780 C   0  0  0  0  0  0  0  0  0  0  0  0
   17.2827   12.7002  -13.7773 O   0  0  0  0  0  0  0  0  0  0  0  0
   16.3657   15.2591  -19.5136 C   0  0  0  0  0  0  0  0  0  0  0  0
   17.3154   14.4515  -16.9588 C   0  0  0  0  0  0  0  0  0  0  0  0
   17.5707   15.7829  -19.0607 C   0  0  0  0  0  0  0  0  0  0  0  0
   17.9861   15.4616  -17.8464 C   0  0  0  0  0  0  0  0  0  0  0  0
   14.5616   13.9870  -19.5327 C   0  0  0  0  0  0  0  0  0  0  0  0
   17.7799   13.9763  -15.7822 C   0  0  0  0  0  0  0  0  0  0  0  0
   14.5728   14.7056  -20.7957 C   0  0  0  0  0  0  0  0  0  0  0  0
   15.7573   15.5842  -20.7984 N   0  0  0  0  0  0  0  0  0  0  0  0
   13.7109   14.6517  -21.7564 O   0  0  0  0  0  0  0  0  0  0  0  0
  1  2  1  0
  2  3  2  0
  3  4  1  0
  4  5  1  0
  1  6  1  0
  5  7  1  0
  4  8  2  0
  7  9  1  0
  8 10  1  0
  9 10  2  0
  5 11  2  0
  1 12  2  0
  8 12  1  0
 11 13  1  0
  7 14  1  0
 13 14  1  0
 13 15  2  0
M  END
$$$$

     RDKit          3D

 15 16  0  0  0  0  0  0  0  0999 V2000
   17.0550   13.7902  -15.7944 C   0  0  0  0  0  0  0  0  0  0  0  0
   15.8599   13.4015  -16.0331 C   0  0  0  0  0  0  0  0  0  0  0  0
   17.7147   13.4314  -14.5959 F   0  0  0  0  0  0  0  0  0  0  0  0
   15.1940   13.6043  -17.2429 C   0  0  0  0  0  0  0  0  0  0  0  0
   13.8208   13.1976  -17.5009 C   0  0  0  0  0  0  0  0  0  0  0  0
   12.9878   13.8053  -18.0250 N   0  0  0  0  0  0  0  0  0  0  0  0
   11.7567   14.0223  -17.8076 C   0  0  0  0  0  0  0  0  0  0  0  0
   17.7270   14.6335  -16.6212 C   0  0  0  0  0  0  0  0  0  0  0  0
   17.0851   15.0243  -17.8382 C   0  0  0  0  0  0  0  0  0  0  0  0
   15.9238   14.3976  -18.2214 C   0  0  0  0  0  0  0  0  0  0  0  0
   11.2718   15.2917  -17.3358 C   0  0  0  0  0  0  0  0  0  0  0  0
   11.9810   16.4091  -17.5604 C   0  0  0  0  0  0  0  0  0  0  0  0
   10.1677   15.3830  -16.4357 C   0  0  0  0  0  0  0  0  0  0  0  0
    9.7616   16.6106  -15.9545 C   0  0  0  0  0  0  0  0  0  0  0  0
   10.8639   17.6462  -16.6480 S   0  0  0  0  0  0  0  0  0  0  0  0
  1  2  1  0
  1  3  1  0
  2  4  2  0
  4  5  1  0
  5  6  1  0
  6  7  1  0
  1  8  2  0
  8  9  1  0
  4 10  1  0
  9 10  2  0
  7 11  1  0
 11 12  2  0
 11 13  1  0
 13 14  2  0
 12 15  1  0
 14 15  1  0
M  END
$$$$

     RDKit          3D

 16 18  0  0  0  0  0  0  0  0999 V2000
   16.9164   12.9958  -15.1088 C   0  0  0  0  0  0  0  0  0  0  0  0
   17.3100   14.0594  -15.5556 C   0  0  0  0  0  0  0  0  0  0  0  0
   16.7575   14.6385  -16.7412 C   0  0  0  0  0  0  0  0  0  0  0  0
   15.6605   14.0269  -17.3260 C   0  0  0  0  0  0  0  0  0  0  0  0
   15.1051   12.8741  -16.7424 C   0  0  0  0  0  0  0  0  0  0  0  0
   15.0406   14.5841  -18.5068 C   0  0  0  0  0  0  0  0  0  0  0  0
   13.8424   14.1013  -18.8802 C   0  0  0  0  0  0  0  0  0  0  0  0
   15.6615   15.4404  -19.2504 C   0  0  0  0  0  0  0  0  0  0  0  0
   13.9624   12.2796  -17.2774 C   0  0  0  0  0  0  0  0  0  0  0  0
   13.3233   12.9276  -18.3392 C   0  0  0  0  0  0  0  0  0  0  0  0
   13.0923   14.7854  -19.8456 C   0  0  0  0  0  0  0  0  0  0  0  0
   17.4304   12.4973  -13.8736 O   0  0  0  0  0  0  0  0  0  0  0  0
   15.0751   16.1760  -20.3391 C   0  0  0  0  0  0  0  0  0  0  0  0
   15.7836   12.2774  -15.6459 C   0  0  0  0  0  0  0  0  0  0  0  0
   13.7979   15.7685  -20.6656 C   0  0  0  0  0  0  0  0  0  0  0  0
   12.0828   12.4613  -18.6749 O   0  0  0  0  0  0  0  0  0  0  0  0
  1  2  2  0
  2  3  1  0
  3  4  2  0
  4  5  1  0
  4  6  1  0
  6  7  1  0
  6  8  2  0
  5  9  1  0
  7 10  1  0
  9 10  1  0
  7 11  2  0
  1 12  1  0
  8 13  1  0
  1 14  1  0
  5 14  2  0
 11 15  1  0
 13 15  2  0
 10 16  2  0
M  END
$$$$

     RDKit          3D

 16 18  0  0  0  0  0  0  0  0999 V2000
   16.9164   12.9958  -15.1088 C   0  0  0  0  0  0  0  0  0  0  0  0
   17.3100   14.0594  -15.5556 C   0  0  0  0  0  0  0  0  0  0  0  0
   16.7575   14.6385  -16.7412 C   0  0  0  0  0  0  0  0  0  0  0  0
   15.6605   14.0269  -17.3260 C   0  0  0  0  0  0  0  0  0  0  0  0
   15.1051   12.8741  -16.7424 C   0  0  0  0  0  0  0  0  0  0  0  0
   15.0406   14.5841  -18.5068 C   0  0  0  0  0  0  0  0  0  0  0  0
   13.8424   14.1013  -18.8802 C   0  0  0  0  0  0  0  0  0  0  0  0
   15.6615   15.4404  -19.2504 C   0  0  0  0  0  0  0  0  0  0  0  0
   13.9624   12.2796  -17.2774 C   0  0  0  0  0  0  0  0  0  0  0  0
   13.2744   12.9220  -18.3400 C   0  0  0  0  0  0  0  0  0  0  0  0
   15.7397   12.3169  -15.5788 C   0  0  0  0  0  0  0  0  0  0  0  0
   14.6423   15.7374  -20.4079 C   0  0  0  0  0  0  0  0  0  0  0  0
   13.5220   14.7454  -20.1899 C   0  0  0  0  0  0  0  0  0  0  0  0
   14.7408   16.6534  -21.4713 C   0  0  0  0  0  0  0  0  0  0  0  0
   15.5473   16.6707  -22.1493 O   0  0  0  0  0  0  0  0  0  0  0  0
   13.8982   17.7445  -21.3646 O   0  0  0  0  0  0  0  0  0  0  0  0
  1  2  2  0
  2  3  1  0
  3  4  2  0
  4  5  1  0
  4  6  1  0
  6  7  1  0
  6  8  2  0
  5  9  1  0
  7 10  1  0
  9 10  2  0
  1 11  1  0
  5 11  2  0
  8 12  1  0
  7 13  1  0
 12 13  2  0
 12 14  1  0
 14 15  2  0
 14 16  1  0
M  END
$$$$

     RDKit          3D

 16 17  0  0  0  0  0  0  0  0999 V2000
   17.0550   13.7902  -15.7944 C   0  0  0  0  0  0  0  0  0  0  0  0
   15.8599   13.4015  -16.0331 C   0  0  0  0  0  0  0  0  0  0  0  0
   15.1524   13.7648  -17.2038 C   0  0  0  0  0  0  0  0  0  0  0  0
   13.7852   13.3829  -17.4515 O   0  0  0  0  0  0  0  0  0  0  0  0
   13.1383   13.5833  -18.4647 C   0  0  0  0  0  0  0  0  0  0  0  0
   12.4695   14.8689  -18.4389 C   0  0  0  0  0  0  0  0  0  0  0  0
   12.8134   15.8165  -19.2597 C   0  0  0  0  0  0  0  0  0  0  0  0
   11.9344   17.0501  -18.9488 C   0  0  0  0  0  0  0  0  0  0  0  0
   10.9539   17.1500  -18.1204 C   0  0  0  0  0  0  0  0  0  0  0  0
   10.7533   15.9465  -17.3579 C   0  0  0  0  0  0  0  0  0  0  0  0
   17.7007   13.5117  -14.5791 O   0  0  0  0  0  0  0  0  0  0  0  0
    9.6117   16.0674  -16.3131 C   0  0  0  0  0  0  0  0  0  0  0  0
   15.9003   14.5147  -18.1380 C   0  0  0  0  0  0  0  0  0  0  0  0
   11.2824   14.9618  -17.4800 C   0  0  0  0  0  0  0  0  0  0  0  0
   17.7213   14.7309  -16.6526 C   0  0  0  0  0  0  0  0  0  0  0  0
   17.1136   15.0276  -17.8554 C   0  0  0  0  0  0  0  0  0  0  0  0
  1  2  1  0
  2  3  2  0
  3  4  1  0
  4  5  1  0
  5  6  1  0
  6  7  2  0
  7  8  1  0
  8  9  2  0
  9 10  1  0
  1 11  1  0
 10 12  1  0
  3 13  1  0
  6 14  1  0
 10 14  2  0
  1 15  2  0
 13 16  2  0
 15 16  1  0
M  END
$$$$

     RDKit          3D

 16 18  0  0  0  0  0  0  0  0999 V2000
   16.9164   12.9958  -15.1088 C   0  0  0  0  0  0  0  0  0  0  0  0
   15.8006   12.6958  -15.6501 C   0  0  0  0  0  0  0  0  0  0  0  0
   15.4107   12.9983  -16.7661 C   0  0  0  0  0  0  0  0  0  0  0  0
   16.1210   13.9196  -17.6013 C   0  0  0  0  0  0  0  0  0  0  0  0
   15.6921   14.4151  -18.8780 C   0  0  0  0  0  0  0  0  0  0  0  0
   17.2827   12.7002  -13.7773 O   0  0  0  0  0  0  0  0  0  0  0  0
   16.3657   15.2591  -19.5136 C   0  0  0  0  0  0  0  0  0  0  0  0
   17.3154   14.4515  -16.9588 C   0  0  0  0  0  0  0  0  0  0  0  0
   17.5707   15.7829  -19.0607 C   0  0  0  0  0  0  0  0  0  0  0  0
   18.0213   15.4533  -17.8002 C   0  0  0  0  0  0  0  0  0  0  0  0
   15.9792   15.6668  -20.8434 C   0  0  0  0  0  0  0  0  0  0  0  0
   14.8324   15.0824  -21.4123 C   0  0  0  0  0  0  0  0  0  0  0  0
   14.3945   13.8403  -19.3885 C   0  0  0  0  0  0  0  0  0  0  0  0
   14.4153   15.5039  -22.6866 O   0  0  0  0  0  0  0  0  0  0  0  0
   17.5996   14.0630  -15.6719 C   0  0  0  0  0  0  0  0  0  0  0  0
   14.0185   14.2063  -20.6621 C   0  0  0  0  0  0  0  0  0  0  0  0
  1  2  1  0
  2  3  2  0
  3  4  1  0
  4  5  1  0
  1  6  1  0
  5  7  1  0
  4  8  2  0
  7  9  1  0
  8 10  1  0
  9 10  2  0
  7 11  2  0
 11 12  1  0
  5 13  2  0
 12 14  1  0
  1 15  2  0
  8 15  1  0
 12 16  2  0
 13 16  1  0
M  END
$$$$

     RDKit          3D

 16 16  0  0  0  0  0  0  0  0999 V2000
   17.0550   13.7902  -15.7944 C   0  0  0  0  0  0  0  0  0  0  0  0
   15.8599   13.4015  -16.0331 C   0  0  0  0  0  0  0  0  0  0  0  0
   15.1013   12.5227  -15.2103 F   0  0  0  0  0  0  0  0  0  0  0  0
   15.1245   13.8221  -17.1830 C   0  0  0  0  0  0  0  0  0  0  0  0
   13.7359   13.3977  -17.4203 O   0  0  0  0  0  0  0  0  0  0  0  0
   13.3864   13.4716  -18.7212 C   0  0  0  0  0  0  0  0  0  0  0  0
   15.6951   14.8970  -17.9904 C   0  0  0  0  0  0  0  0  0  0  0  0
   17.6713   14.7176  -16.5301 C   0  0  0  0  0  0  0  0  0  0  0  0
   17.0197   15.2600  -17.7006 C   0  0  0  0  0  0  0  0  0  0  0  0
   11.8645   13.6489  -18.6990 C   0  0  0  0  0  0  0  0  0  0  0  0
   11.0684   12.7859  -18.9701 O   0  0  0  0  0  0  0  0  0  0  0  0
   11.3528   14.7511  -17.9912 N   0  0  0  0  0  0  0  0  0  0  0  0
   12.0811   15.8993  -17.6124 C   0  0  0  0  0  0  0  0  0  0  0  0
   11.1767   16.6490  -16.7600 C   0  0  0  0  0  0  0  0  0  0  0  0
   11.0520   17.9364  -17.0132 N   0  0  0  0  0  0  0  0  0  0  0  0
   10.8016   16.0801  -15.5980 O   0  0  0  0  0  0  0  0  0  0  0  0
  1  2  1  0
  2  3  1  0
  2  4  2  0
  4  5  1  0
  5  6  1  0
  4  7  1  0
  1  8  2  0
  7  9  2  0
  8  9  1  0
  6 10  1  0
 10 11  2  0
 10 12  1  0
 12 13  1  0
 13 14  1  0
 14 15  1  0
 14 16  2  0
M  END
$$$$

     RDKit          3D

 16 17  0  0  0  0  0  0  0  0999 V2000
   16.9164   12.9958  -15.1088 C   0  0  0  0  0  0  0  0  0  0  0  0
   15.8006   12.6958  -15.6501 C   0  0  0  0  0  0  0  0  0  0  0  0
   14.7476   11.9962  -15.0575 F   0  0  0  0  0  0  0  0  0  0  0  0
   17.2314   12.5241  -13.8056 O   0  0  0  0  0  0  0  0  0  0  0  0
   15.3023   13.4231  -16.8588 C   0  0  0  0  0  0  0  0  0  0  0  0
   14.0394   13.1585  -17.4243 C   0  0  0  0  0  0  0  0  0  0  0  0
   13.0019   13.9615  -17.1809 N   0  0  0  0  0  0  0  0  0  0  0  0
   12.3528   14.7188  -18.1206 C   0  0  0  0  0  0  0  0  0  0  0  0
   11.3472   15.5978  -17.7157 C   0  0  0  0  0  0  0  0  0  0  0  0
   11.1388   15.9502  -16.5297 C   0  0  0  0  0  0  0  0  0  0  0  0
   10.2777   15.8311  -18.6384 C   0  0  0  0  0  0  0  0  0  0  0  0
    9.3094   16.6673  -17.8206 C   0  0  0  0  0  0  0  0  0  0  0  0
   16.3163   14.1712  -17.5279 C   0  0  0  0  0  0  0  0  0  0  0  0
   17.4984   14.5290  -16.8969 C   0  0  0  0  0  0  0  0  0  0  0  0
    9.8764   16.7001  -16.4957 C   0  0  0  0  0  0  0  0  0  0  0  0
   17.7759   13.9747  -15.5570 C   0  0  0  0  0  0  0  0  0  0  0  0
  1  2  2  0
  2  3  1  0
  1  4  1  0
  2  5  1  0
  5  6  1  0
  6  7  1  0
  7  8  1  0
  8  9  1  0
  9 10  1  0
  9 11  2  0
 11 12  1  0
  5 13  2  0
 13 14  1  0
 10 15  1  0
 12 15  2  0
  1 16  1  0
 14 16  2  0
M  END
$$$$

     RDKit          3D

 16 16  0  0  0  0  0  0  0  0999 V2000
   17.0550   13.7902  -15.7944 C   0  0  0  0  0  0  0  0  0  0  0  0
   15.8599   13.4015  -16.0331 C   0  0  0  0  0  0  0  0  0  0  0  0
   15.1013   12.5227  -15.2103 F   0  0  0  0  0  0  0  0  0  0  0  0
   15.0924   14.0422  -17.0268 C   0  0  0  0  0  0  0  0  0  0  0  0
   17.7028   14.7340  -16.5681 C   0  0  0  0  0  0  0  0  0  0  0  0
   13.6815   13.6236  -17.3356 C   0  0  0  0  0  0  0  0  0  0  0  0
   15.7700   14.9619  -17.9285 C   0  0  0  0  0  0  0  0  0  0  0  0
   13.4873   12.7620  -18.2422 O   0  0  0  0  0  0  0  0  0  0  0  0
   12.7448   14.0481  -16.5631 N   0  0  0  0  0  0  0  0  0  0  0  0
   15.0337   15.5338  -19.0817 C   0  0  0  0  0  0  0  0  0  0  0  0
   19.0386   15.1565  -16.2741 F   0  0  0  0  0  0  0  0  0  0  0  0
   17.1415   15.3299  -17.6949 C   0  0  0  0  0  0  0  0  0  0  0  0
   12.7117   14.9602  -15.5337 C   0  0  0  0  0  0  0  0  0  0  0  0
   11.6850   16.0209  -15.8258 C   0  0  0  0  0  0  0  0  0  0  0  0
   10.7691   15.7793  -16.7551 C   0  0  0  0  0  0  0  0  0  0  0  0
   10.4803   16.6555  -17.7043 C   0  0  0  0  0  0  0  0  0  0  0  0
  1  2  1  0
  2  3  1  0
  2  4  2  0
  1  5  2  0
  4  6  1  0
  4  7  1  0
  6  8  2  0
  6  9  1  0
  7 10  1  0
  5 11  1  0
  5 12  1  0
  7 12  2  0
  9 13  1  0
 13 14  1  0
 14 15  1  0
 15 16  1  0
M  END
$$$$

     RDKit          3D

 16 17  0  0  0  0  0  0  0  0999 V2000
   17.0550   13.7902  -15.7944 C   0  0  0  0  0  0  0  0  0  0  0  0
   15.8599   13.4015  -16.0331 C   0  0  0  0  0  0  0  0  0  0  0  0
   15.1013   12.5227  -15.2103 F   0  0  0  0  0  0  0  0  0  0  0  0
   15.1245   13.8221  -17.1830 C   0  0  0  0  0  0  0  0  0  0  0  0
   13.7359   13.3977  -17.4203 O   0  0  0  0  0  0  0  0  0  0  0  0
   13.3864   13.4716  -18.7212 C   0  0  0  0  0  0  0  0  0  0  0  0
   15.6951   14.8970  -17.9904 C   0  0  0  0  0  0  0  0  0  0  0  0
   17.6713   14.7176  -16.5301 C   0  0  0  0  0  0  0  0  0  0  0  0
   17.0197   15.2600  -17.7006 C   0  0  0  0  0  0  0  0  0  0  0  0
   11.8645   13.6489  -18.6990 C   0  0  0  0  0  0  0  0  0  0  0  0
   11.0684   12.7859  -18.9701 O   0  0  0  0  0  0  0  0  0  0  0  0
   11.3528   14.7511  -17.9912 N   0  0  0  0  0  0  0  0  0  0  0  0
   12.0811   15.8993  -17.6124 C   0  0  0  0  0  0  0  0  0  0  0  0
    9.8951   14.8611  -17.7631 C   0  0  0  0  0  0  0  0  0  0  0  0
    9.6050   16.0890  -17.0805 C   0  0  0  0  0  0  0  0  0  0  0  0
   10.9868   16.6486  -16.7500 C   0  0  0  0  0  0  0  0  0  0  0  0
  1  2  1  0
  2  3  1  0
  2  4  2  0
  4  5  1  0
  5  6  1  0
  4  7  1  0
  1  8  2  0
  7  9  2  0
  8  9  1  0
  6 10  1  0
 10 11  2  0
 10 12  1  0
 12 13  1  0
 12 14  1  0
 14 15  1  0
 13 16  1  0
 15 16  1  0
M  END
$$$$

     RDKit          3D

 17 17  0  0  0  0  0  0  0  0999 V2000
   17.0550   13.7902  -15.7944 C   0  0  0  0  0  0  0  0  0  0  0  0
   15.8599   13.4015  -16.0331 C   0  0  0  0  0  0  0  0  0  0  0  0
   15.1524   13.7648  -17.2038 C   0  0  0  0  0  0  0  0  0  0  0  0
   13.7852   13.3829  -17.4515 C   0  0  0  0  0  0  0  0  0  0  0  0
   13.2804   12.3145  -17.0143 O   0  0  0  0  0  0  0  0  0  0  0  0
   17.7070   14.7918  -16.5460 C   0  0  0  0  0  0  0  0  0  0  0  0
   12.9158   14.2466  -18.0725 N   0  0  0  0  0  0  0  0  0  0  0  0
   15.8649   14.6091  -18.0730 C   0  0  0  0  0  0  0  0  0  0  0  0
   11.7312   14.1461  -18.4769 C   0  0  0  0  0  0  0  0  0  0  0  0
   11.3791   13.2612  -19.4547 C   0  0  0  0  0  0  0  0  0  0  0  0
   12.3110   12.4162  -20.2071 C   0  0  0  0  0  0  0  0  0  0  0  0
   10.7389   15.2205  -18.1737 C   0  0  0  0  0  0  0  0  0  0  0  0
   11.0404   16.2538  -17.2316 C   0  0  0  0  0  0  0  0  0  0  0  0
   10.2183   16.4285  -16.2857 C   0  0  0  0  0  0  0  0  0  0  0  0
   13.0663   12.9610  -21.0655 O   0  0  0  0  0  0  0  0  0  0  0  0
   12.2233   11.1435  -20.1434 O   0  0  0  0  0  0  0  0  0  0  0  0
   17.0933   15.0501  -17.8380 C   0  0  0  0  0  0  0  0  0  0  0  0
  1  2  1  0
  2  3  2  0
  3  4  1  0
  4  5  2  0
  1  6  2  0
  4  7  1  0
  3  8  1  0
  7  9  1  0
  9 10  2  3
 10 11  1  0
  9 12  1  0
 12 13  1  0
 13 14  1  0
 11 15  2  0
 11 16  1  0
  6 17  1  0
  8 17  2  0
M  END
$$$$

     RDKit          3D

 17 19  0  0  0  0  0  0  0  0999 V2000
   17.0550   13.7902  -15.7944 C   0  0  0  0  0  0  0  0  0  0  0  0
   15.8599   13.4015  -16.0331 C   0  0  0  0  0  0  0  0  0  0  0  0
   15.1524   13.7648  -17.2038 C   0  0  0  0  0  0  0  0  0  0  0  0
   13.7852   13.3829  -17.4515 O   0  0  0  0  0  0  0  0  0  0  0  0
   15.8017   14.4340  -18.2656 C   0  0  0  0  0  0  0  0  0  0  0  0
   17.7258   14.5512  -16.7972 C   0  0  0  0  0  0  0  0  0  0  0  0
   15.0422   14.7543  -19.4494 C   0  0  0  0  0  0  0  0  0  0  0  0
   13.3682   13.6141  -18.5907 C   0  0  0  0  0  0  0  0  0  0  0  0
   13.8452   14.2328  -19.6705 C   0  0  0  0  0  0  0  0  0  0  0  0
   13.1645   14.4370  -20.8616 C   0  0  0  0  0  0  0  0  0  0  0  0
   11.9927   12.9911  -18.7874 C   0  0  0  0  0  0  0  0  0  0  0  0
   11.8672   13.9107  -21.0483 C   0  0  0  0  0  0  0  0  0  0  0  0
   11.1921   14.1010  -22.2810 O   0  0  0  0  0  0  0  0  0  0  0  0
   15.7022   15.4074  -20.4248 O   0  0  0  0  0  0  0  0  0  0  0  0
   17.1176   14.9830  -18.0031 C   0  0  0  0  0  0  0  0  0  0  0  0
   11.2204   13.1987  -19.9995 C   0  0  0  0  0  0  0  0  0  0  0  0
    9.9845   13.6581  -22.3286 C   0  0  0  0  0  0  0  0  0  0  0  0
  1  2  1  0
  2  3  2  0
  3  4  1  0
  3  5  1  0
  1  6  2  0
  5  7  1  0
  4  8  1  0
  7  9  1  0
  8  9  1  0
  9 10  2  0
  8 11  2  0
 10 12  1  0
 12 13  1  0
  7 14  2  0
  5 15  2  0
  6 15  1  0
 11 16  1  0
 12 16  2  0
 13 17  1  0
M  END
$$$$

     RDKit          3D

 17 18  0  0  0  0  0  0  0  0999 V2000
   16.9164   12.9958  -15.1088 C   0  0  0  0  0  0  0  0  0  0  0  0
   17.3100   14.0594  -15.5556 C   0  0  0  0  0  0  0  0  0  0  0  0
   16.7445   14.6581  -16.7217 C   0  0  0  0  0  0  0  0  0  0  0  0
   15.7012   13.9025  -17.3202 C   0  0  0  0  0  0  0  0  0  0  0  0
   15.0372   14.4121  -18.5444 C   0  0  0  0  0  0  0  0  0  0  0  0
   15.1978   12.7246  -16.7656 C   0  0  0  0  0  0  0  0  0  0  0  0
   13.9391   13.8399  -18.9413 N   0  0  0  0  0  0  0  0  0  0  0  0
   15.7933   12.2576  -15.6050 C   0  0  0  0  0  0  0  0  0  0  0  0
   12.7067   14.3290  -18.5843 C   0  0  0  0  0  0  0  0  0  0  0  0
   13.8940   12.4785  -19.4495 C   0  0  0  0  0  0  0  0  0  0  0  0
   12.4757   15.5393  -18.0432 C   0  0  0  0  0  0  0  0  0  0  0  0
   12.5156   12.2256  -19.7462 C   0  0  0  0  0  0  0  0  0  0  0  0
   11.7227   13.3130  -18.9050 C   0  0  0  0  0  0  0  0  0  0  0  0
   11.9658   11.2719  -20.2285 O   0  0  0  0  0  0  0  0  0  0  0  0
   11.1383   15.7746  -17.4830 C   0  0  0  0  0  0  0  0  0  0  0  0
   10.6872   15.1463  -16.5036 O   0  0  0  0  0  0  0  0  0  0  0  0
   10.3072   16.7905  -17.9138 O   0  0  0  0  0  0  0  0  0  0  0  0
  1  2  1  0
  2  3  2  0
  3  4  1  0
  4  5  1  0
  4  6  2  0
  5  7  1  0
  1  8  2  0
  6  8  1  0
  7  9  1  0
  7 10  1  0
  9 11  1  0
 10 12  1  0
  9 13  1  0
 12 13  1  0
 12 14  2  0
 11 15  1  0
 15 16  1  0
 15 17  2  0
M  END
$$$$

     RDKit          3D

 17 18  0  0  0  0  0  0  0  0999 V2000
   16.9164   12.9958  -15.1088 C   0  0  0  0  0  0  0  0  0  0  0  0
   15.8006   12.6958  -15.6501 C   0  0  0  0  0  0  0  0  0  0  0  0
   14.7476   11.9962  -15.0575 F   0  0  0  0  0  0  0  0  0  0  0  0
   17.2314   12.5241  -13.8056 O   0  0  0  0  0  0  0  0  0  0  0  0
   15.3023   13.4231  -16.8588 C   0  0  0  0  0  0  0  0  0  0  0  0
   14.0394   13.1585  -17.4243 C   0  0  0  0  0  0  0  0  0  0  0  0
   13.0019   13.9615  -17.1809 N   0  0  0  0  0  0  0  0  0  0  0  0
   12.3528   14.7188  -18.1206 C   0  0  0  0  0  0  0  0  0  0  0  0
   11.3472   15.5978  -17.7157 C   0  0  0  0  0  0  0  0  0  0  0  0
   12.9875   14.9586  -19.2997 O   0  0  0  0  0  0  0  0  0  0  0  0
   10.8000   16.4903  -18.5459 C   0  0  0  0  0  0  0  0  0  0  0  0
    9.6675   17.1367  -17.8380 C   0  0  0  0  0  0  0  0  0  0  0  0
   16.2195   14.3189  -17.4867 C   0  0  0  0  0  0  0  0  0  0  0  0
   17.8123   14.0411  -15.6160 C   0  0  0  0  0  0  0  0  0  0  0  0
    9.6121   16.4429  -16.5989 C   0  0  0  0  0  0  0  0  0  0  0  0
   10.6551   15.5068  -16.3662 C   0  0  0  0  0  0  0  0  0  0  0  0
   17.4452   14.6265  -16.8197 C   0  0  0  0  0  0  0  0  0  0  0  0
  1  2  2  0
  2  3  1  0
  1  4  1  0
  2  5  1  0
  5  6  1  0
  6  7  1  0
  7  8  1  0
  8  9  1  0
  8 10  2  0
  9 11  2  0
 11 12  1  0
  5 13  2  0
  1 14  1  0
 12 15  2  0
  9 16  1  0
 15 16  1  0
 13 17  1  0
 14 17  2  0
M  END
$$$$

     RDKit          3D

 17 19  0  0  0  0  0  0  0  0999 V2000
   16.9164   12.9958  -15.1088 C   0  0  0  0  0  0  0  0  0  0  0  0
   17.3100   14.0594  -15.5556 C   0  0  0  0  0  0  0  0  0  0  0  0
   16.7575   14.6385  -16.7412 C   0  0  0  0  0  0  0  0  0  0  0  0
   15.6605   14.0269  -17.3260 C   0  0  0  0  0  0  0  0  0  0  0  0
   15.1051   12.8741  -16.7424 C   0  0  0  0  0  0  0  0  0  0  0  0
   15.0406   14.5841  -18.5068 C   0  0  0  0  0  0  0  0  0  0  0  0
   13.8424   14.1013  -18.8802 C   0  0  0  0  0  0  0  0  0  0  0  0
   15.6615   15.4404  -19.2504 C   0  0  0  0  0  0  0  0  0  0  0  0
   13.9624   12.2796  -17.2774 C   0  0  0  0  0  0  0  0  0  0  0  0
   15.0718   15.9850  -20.4143 C   0  0  0  0  0  0  0  0  0  0  0  0
   15.6842   12.3805  -15.5681 C   0  0  0  0  0  0  0  0  0  0  0  0
   13.1036   13.1174  -18.0863 C   0  0  0  0  0  0  0  0  0  0  0  0
   15.7561   16.9122  -21.1995 O   0  0  0  0  0  0  0  0  0  0  0  0
   13.1598   14.6025  -20.0692 C   0  0  0  0  0  0  0  0  0  0  0  0
   11.8454   14.1566  -20.4182 C   0  0  0  0  0  0  0  0  0  0  0  0
   13.7998   15.6065  -20.8516 C   0  0  0  0  0  0  0  0  0  0  0  0
   11.1648   13.4440  -19.7517 O   0  0  0  0  0  0  0  0  0  0  0  0
  1  2  2  0
  2  3  1  0
  3  4  2  0
  4  5  1  0
  4  6  1  0
  6  7  1  0
  6  8  2  0
  5  9  1  0
  8 10  1  0
  1 11  1  0
  5 11  2  0
  7 12  1  0
  9 12  1  0
 10 13  1  0
  7 14  2  0
 14 15  1  0
 10 16  2  0
 14 16  1  0
 15 17  2  0
M  END
$$$$

     RDKit          3D

 17 18  0  0  0  0  0  0  0  0999 V2000
   16.9164   12.9958  -15.1088 C   0  0  0  0  0  0  0  0  0  0  0  0
   15.8006   12.6958  -15.6501 C   0  0  0  0  0  0  0  0  0  0  0  0
   14.7476   11.9962  -15.0575 F   0  0  0  0  0  0  0  0  0  0  0  0
   17.2314   12.5241  -13.8056 O   0  0  0  0  0  0  0  0  0  0  0  0
   15.3023   13.4231  -16.8588 C   0  0  0  0  0  0  0  0  0  0  0  0
   14.0394   13.1585  -17.4243 C   0  0  0  0  0  0  0  0  0  0  0  0
   13.0019   13.9615  -17.1809 N   0  0  0  0  0  0  0  0  0  0  0  0
   12.3528   14.7188  -18.1206 C   0  0  0  0  0  0  0  0  0  0  0  0
   11.3472   15.5978  -17.7157 C   0  0  0  0  0  0  0  0  0  0  0  0
   17.8108   14.0348  -15.6078 C   0  0  0  0  0  0  0  0  0  0  0  0
   16.2322   14.3299  -17.4918 C   0  0  0  0  0  0  0  0  0  0  0  0
   10.8404   16.4258  -18.5589 C   0  0  0  0  0  0  0  0  0  0  0  0
   15.9373   14.9307  -18.7987 C   0  0  0  0  0  0  0  0  0  0  0  0
   11.1017   15.9081  -16.3354 C   0  0  0  0  0  0  0  0  0  0  0  0
   10.0910   16.9052  -16.4018 C   0  0  0  0  0  0  0  0  0  0  0  0
   17.4543   14.5948  -16.8376 C   0  0  0  0  0  0  0  0  0  0  0  0
    9.8990   17.3581  -17.9882 C   0  0  0  0  0  0  0  0  0  0  0  0
  1  2  2  0
  2  3  1  0
  1  4  1  0
  2  5  1  0
  5  6  1  0
  6  7  1  0
  7  8  1  0
  8  9  1  0
  1 10  1  0
  5 11  2  0
  9 12  2  0
 11 13  1  0
  9 14  1  0
 14 15  1  0
 10 16  2  0
 11 16  1  0
 12 17  1  0
 15 17  2  0
M  END
$$$$

     RDKit          3D

 18 20  0  0  0  0  0  0  0  0999 V2000
   16.9164   12.9958  -15.1088 C   0  0  0  0  0  0  0  0  0  0  0  0
   17.3100   14.0594  -15.5556 C   0  0  0  0  0  0  0  0  0  0  0  0
   16.7575   14.6385  -16.7412 C   0  0  0  0  0  0  0  0  0  0  0  0
   15.6605   14.0269  -17.3260 C   0  0  0  0  0  0  0  0  0  0  0  0
   15.1051   12.8741  -16.7424 C   0  0  0  0  0  0  0  0  0  0  0  0
   15.0406   14.5841  -18.5068 C   0  0  0  0  0  0  0  0  0  0  0  0
   13.8424   14.1013  -18.8802 C   0  0  0  0  0  0  0  0  0  0  0  0
   15.6615   15.4404  -19.2504 C   0  0  0  0  0  0  0  0  0  0  0  0
   13.9624   12.2796  -17.2774 C   0  0  0  0  0  0  0  0  0  0  0  0
   13.3233   12.9276  -18.3392 C   0  0  0  0  0  0  0  0  0  0  0  0
   15.7142   12.4868  -15.5327 C   0  0  0  0  0  0  0  0  0  0  0  0
   16.9125   16.1263  -19.1695 C   0  0  0  0  0  0  0  0  0  0  0  0
   13.1317   14.6661  -19.9346 C   0  0  0  0  0  0  0  0  0  0  0  0
   17.0608   17.1181  -18.3828 O   0  0  0  0  0  0  0  0  0  0  0  0
   14.8488   16.1291  -20.5098 C   0  0  0  0  0  0  0  0  0  0  0  0
   17.9303   15.6890  -19.8046 O   0  0  0  0  0  0  0  0  0  0  0  0
   13.6817   15.6419  -20.7498 C   0  0  0  0  0  0  0  0  0  0  0  0
   12.1083   12.4046  -18.6635 O   0  0  0  0  0  0  0  0  0  0  0  0
  1  2  2  0
  2  3  1  0
  3  4  2  0
  4  5  1  0
  4  6  1  0
  6  7  1  0
  6  8  2  0
  5  9  1  0
  7 10  1  0
  9 10  1  0
  1 11  1  0
  5 11  2  0
  8 12  1  0
  7 13  2  0
 12 14  1  0
  8 15  1  0
 12 16  2  0
 13 17  1  0
 15 17  2  0
 10 18  2  0
M  END
$$$$

     RDKit          3D

 18 20  0  0  0  0  0  0  0  0999 V2000
   16.9164   12.9958  -15.1088 C   0  0  0  0  0  0  0  0  0  0  0  0
   17.3100   14.0594  -15.5556 C   0  0  0  0  0  0  0  0  0  0  0  0
   16.7445   14.6581  -16.7217 C   0  0  0  0  0  0  0  0  0  0  0  0
   15.7012   13.9025  -17.3202 C   0  0  0  0  0  0  0  0  0  0  0  0
   15.0372   14.4121  -18.5444 C   0  0  0  0  0  0  0  0  0  0  0  0
   15.1978   12.7246  -16.7656 C   0  0  0  0  0  0  0  0  0  0  0  0
   13.9391   13.8399  -18.9413 N   0  0  0  0  0  0  0  0  0  0  0  0
   15.7933   12.2576  -15.6050 C   0  0  0  0  0  0  0  0  0  0  0  0
   12.7067   14.3290  -18.5843 C   0  0  0  0  0  0  0  0  0  0  0  0
   13.8940   12.4785  -19.4495 C   0  0  0  0  0  0  0  0  0  0  0  0
   12.4757   15.5393  -18.0432 C   0  0  0  0  0  0  0  0  0  0  0  0
   12.5156   12.2256  -19.7462 C   0  0  0  0  0  0  0  0  0  0  0  0
   11.7227   13.3130  -18.9050 C   0  0  0  0  0  0  0  0  0  0  0  0
   11.1217   15.8285  -17.5743 C   0  0  0  0  0  0  0  0  0  0  0  0
   12.7183   16.5988  -18.8273 C   0  0  0  0  0  0  0  0  0  0  0  0
   12.3425   17.8877  -18.2567 N   0  0  0  0  0  0  0  0  0  0  0  0
   11.9811   11.2883  -20.3296 O   0  0  0  0  0  0  0  0  0  0  0  0
   11.2735   17.7882  -17.3464 C   0  0  0  0  0  0  0  0  0  0  0  0
  1  2  1  0
  2  3  2  0
  3  4  1  0
  4  5  1  0
  4  6  2  0
  5  7  1  0
  1  8  2  0
  6  8  1  0
  7  9  1  0
  7 10  1  0
  9 11  1  0
 10 12  1  0
  9 13  1  0
 12 13  1  0
 11 14  1  0
 11 15  1  0
 15 16  1  0
 12 17  2  0
 14 18  1  0
 16 18  1  0
M  END
$$$$

     RDKit          3D

 18 19  0  0  0  0  0  0  0  0999 V2000
   16.9164   12.9958  -15.1088 C   0  0  0  0  0  0  0  0  0  0  0  0
   15.8006   12.6958  -15.6501 C   0  0  0  0  0  0  0  0  0  0  0  0
   14.7476   11.9962  -15.0575 F   0  0  0  0  0  0  0  0  0  0  0  0
   17.2314   12.5241  -13.8056 O   0  0  0  0  0  0  0  0  0  0  0  0
   15.3023   13.4231  -16.8588 C   0  0  0  0  0  0  0  0  0  0  0  0
   14.0394   13.1585  -17.4243 C   0  0  0  0  0  0  0  0  0  0  0  0
   13.0019   13.9615  -17.1809 N   0  0  0  0  0  0  0  0  0  0  0  0
   12.3528   14.7188  -18.1206 C   0  0  0  0  0  0  0  0  0  0  0  0
   11.3472   15.5978  -17.7157 C   0  0  0  0  0  0  0  0  0  0  0  0
   17.8108   14.0348  -15.6078 C   0  0  0  0  0  0  0  0  0  0  0  0
   16.2322   14.3299  -17.4918 C   0  0  0  0  0  0  0  0  0  0  0  0
   10.8404   16.4258  -18.5589 C   0  0  0  0  0  0  0  0  0  0  0  0
   15.9373   14.9307  -18.7987 C   0  0  0  0  0  0  0  0  0  0  0  0
   11.1017   15.9081  -16.3354 C   0  0  0  0  0  0  0  0  0  0  0  0
   10.0910   16.9052  -16.4018 C   0  0  0  0  0  0  0  0  0  0  0  0
   17.4543   14.5948  -16.8376 C   0  0  0  0  0  0  0  0  0  0  0  0
    9.3617   17.4755  -15.3397 C   0  0  0  0  0  0  0  0  0  0  0  0
    9.6993   17.3949  -17.8315 C   0  0  0  0  0  0  0  0  0  0  0  0
  1  2  2  0
  2  3  1  0
  1  4  1  0
  2  5  1  0
  5  6  1  0
  6  7  1  0
  7  8  1  0
  8  9  1  0
  1 10  1  0
  5 11  2  0
  9 12  2  0
 11 13  1  0
  9 14  1  0
 14 15  1  0
 10 16  2  0
 11 16  1  0
 15 17  1  0
 12 18  1  0
 15 18  2  0
M  END
$$$$

     RDKit          3D

 18 20  0  0  0  0  0  0  0  0999 V2000
   17.0550   13.7902  -15.7944 C   0  0  0  0  0  0  0  0  0  0  0  0
   15.8599   13.4015  -16.0331 C   0  0  0  0  0  0  0  0  0  0  0  0
   15.1524   13.7648  -17.2038 C   0  0  0  0  0  0  0  0  0  0  0  0
   13.7852   13.3829  -17.4515 O   0  0  0  0  0  0  0  0  0  0  0  0
   15.8017   14.4340  -18.2656 C   0  0  0  0  0  0  0  0  0  0  0  0
   17.7258   14.5512  -16.7972 C   0  0  0  0  0  0  0  0  0  0  0  0
   15.0422   14.7543  -19.4494 C   0  0  0  0  0  0  0  0  0  0  0  0
   13.3682   13.6141  -18.5907 C   0  0  0  0  0  0  0  0  0  0  0  0
   13.8452   14.2328  -19.6705 C   0  0  0  0  0  0  0  0  0  0  0  0
   17.1135   14.9712  -17.9961 C   0  0  0  0  0  0  0  0  0  0  0  0
   13.1439   14.4535  -20.8962 C   0  0  0  0  0  0  0  0  0  0  0  0
   11.9709   12.9834  -18.7727 C   0  0  0  0  0  0  0  0  0  0  0  0
   11.8422   13.9157  -21.0488 C   0  0  0  0  0  0  0  0  0  0  0  0
   11.1636   14.1162  -22.2776 C   0  0  0  0  0  0  0  0  0  0  0  0
   11.2696   13.2037  -19.9941 C   0  0  0  0  0  0  0  0  0  0  0  0
   15.8504   15.4189  -20.2990 O   0  0  0  0  0  0  0  0  0  0  0  0
   10.4492   15.1537  -22.3583 O   0  0  0  0  0  0  0  0  0  0  0  0
   11.6717   13.6368  -23.3700 O   0  0  0  0  0  0  0  0  0  0  0  0
  1  2  1  0
  2  3  2  0
  3  4  1  0
  3  5  1  0
  1  6  2  0
  5  7  1  0
  4  8  1  0
  7  9  1  0
  8  9  1  0
  5 10  2  0
  6 10  1  0
  9 11  2  0
  8 12  2  0
 11 13  1  0
 13 14  1  0
 12 15  1  0
 13 15  2  0
  7 16  2  0
 14 17  1  0
 14 18  2  0
M  END
$$$$

     RDKit          3D

 18 19  0  0  0  0  0  0  0  0999 V2000
   16.9164   12.9958  -15.1088 C   0  0  0  0  0  0  0  0  0  0  0  0
   15.8006   12.6958  -15.6501 C   0  0  0  0  0  0  0  0  0  0  0  0
   14.7476   11.9962  -15.0575 F   0  0  0  0  0  0  0  0  0  0  0  0
   17.2314   12.5241  -13.8056 O   0  0  0  0  0  0  0  0  0  0  0  0
   15.3023   13.4231  -16.8588 C   0  0  0  0  0  0  0  0  0  0  0  0
   14.0394   13.1585  -17.4243 C   0  0  0  0  0  0  0  0  0  0  0  0
   13.0019   13.9615  -17.1809 N   0  0  0  0  0  0  0  0  0  0  0  0
   12.3528   14.7188  -18.1206 C   0  0  0  0  0  0  0  0  0  0  0  0
   16.1948   14.4280  -17.2690 C   0  0  0  0  0  0  0  0  0  0  0  0
   17.7749   14.0813  -15.5265 C   0  0  0  0  0  0  0  0  0  0  0  0
   12.6696   14.6389  -19.3475 O   0  0  0  0  0  0  0  0  0  0  0  0
   11.4523   15.7782  -17.6916 C   0  0  0  0  0  0  0  0  0  0  0  0
   17.3700   14.7049  -16.7118 C   0  0  0  0  0  0  0  0  0  0  0  0
   10.2084   15.3469  -17.3980 C   0  0  0  0  0  0  0  0  0  0  0  0
   11.8096   17.0488  -17.2803 C   0  0  0  0  0  0  0  0  0  0  0  0
   13.0209   17.7479  -17.5329 C   0  0  0  0  0  0  0  0  0  0  0  0
   10.5479   17.6859  -16.8738 N   0  0  0  0  0  0  0  0  0  0  0  0
    9.5812   16.6663  -16.8934 C   0  0  0  0  0  0  0  0  0  0  0  0
  1  2  2  0
  2  3  1  0
  1  4  1  0
  2  5  1  0
  5  6  1  0
  6  7  1  0
  7  8  1  0
  5  9  2  0
  1 10  1  0
  8 11  2  0
  8 12  1  0
  9 13  1  0
 10 13  2  0
 12 14  2  0
 12 15  1  0
 15 16  1  0
 15 17  1  0
 14 18  1  0
 17 18  2  0
M  END
$$$$

     RDKit          3D

 18 20  0  0  0  0  0  0  0  0999 V2000
   16.9164   12.9958  -15.1088 C   0  0  0  0  0  0  0  0  0  0  0  0
   17.3100   14.0594  -15.5556 C   0  0  0  0  0  0  0  0  0  0  0  0
   16.7446   14.4886  -16.7872 C   0  0  0  0  0  0  0  0  0  0  0  0
   15.7612   13.7146  -17.3367 C   0  0  0  0  0  0  0  0  0  0  0  0
   15.7944   12.2328  -15.5053 C   0  0  0  0  0  0  0  0  0  0  0  0
   15.0811   14.2070  -18.6303 C   0  0  0  0  0  0  0  0  0  0  0  0
   14.0363   13.7002  -18.9841 N   0  0  0  0  0  0  0  0  0  0  0  0
   15.6954   15.1604  -19.4336 C   0  0  0  0  0  0  0  0  0  0  0  0
   15.2916   11.0784  -14.8780 C   0  0  0  0  0  0  0  0  0  0  0  0
   14.1381   10.9458  -14.7080 N   0  0  0  0  0  0  0  0  0  0  0  0
   16.8278   15.8498  -19.4613 C   0  0  0  0  0  0  0  0  0  0  0  0
   13.7118   14.3040  -20.1347 N   0  0  0  0  0  0  0  0  0  0  0  0
   17.1357   16.6015  -20.5704 C   0  0  0  0  0  0  0  0  0  0  0  0
   16.3122   16.7387  -21.6314 C   0  0  0  0  0  0  0  0  0  0  0  0
   15.2011   12.6282  -16.7874 C   0  0  0  0  0  0  0  0  0  0  0  0
   14.7491   15.1429  -20.5002 C   0  0  0  0  0  0  0  0  0  0  0  0
   15.0804   15.9853  -21.6474 C   0  0  0  0  0  0  0  0  0  0  0  0
   16.1677   10.4147  -14.0874 N   0  0  0  0  0  0  0  0  0  0  0  0
  1  2  2  0
  2  3  1  0
  3  4  2  0
  1  5  1  0
  4  6  1  0
  6  7  2  0
  6  8  1  0
  5  9  1  0
  9 10  2  0
  8 11  1  0
  7 12  1  0
 11 13  2  0
 13 14  1  0
  4 15  1  0
  5 15  2  0
  8 16  1  0
 12 16  2  0
 14 17  2  0
 16 17  1  0
  9 18  1  0
M  END
$$$$

     RDKit          3D

 18 19  0  0  0  0  0  0  0  0999 V2000
   16.9164   12.9958  -15.1088 C   0  0  0  0  0  0  0  0  0  0  0  0
   15.8006   12.6958  -15.6501 C   0  0  0  0  0  0  0  0  0  0  0  0
   14.7476   11.9962  -15.0575 F   0  0  0  0  0  0  0  0  0  0  0  0
   17.2314   12.5241  -13.8056 O   0  0  0  0  0  0  0  0  0  0  0  0
   15.3023   13.4231  -16.8588 C   0  0  0  0  0  0  0  0  0  0  0  0
   14.0394   13.1585  -17.4243 C   0  0  0  0  0  0  0  0  0  0  0  0
   13.0019   13.9615  -17.1809 N   0  0  0  0  0  0  0  0  0  0  0  0
   12.3528   14.7188  -18.1206 C   0  0  0  0  0  0  0  0  0  0  0  0
   11.3472   15.5978  -17.7157 C   0  0  0  0  0  0  0  0  0  0  0  0
   17.8108   14.0348  -15.6078 C   0  0  0  0  0  0  0  0  0  0  0  0
   16.2322   14.3299  -17.4918 C   0  0  0  0  0  0  0  0  0  0  0  0
   10.8404   16.4258  -18.5589 C   0  0  0  0  0  0  0  0  0  0  0  0
   15.9373   14.9307  -18.7987 C   0  0  0  0  0  0  0  0  0  0  0  0
   11.1017   15.9081  -16.3354 C   0  0  0  0  0  0  0  0  0  0  0  0
   10.0910   16.9052  -16.4018 C   0  0  0  0  0  0  0  0  0  0  0  0
   17.4543   14.5948  -16.8376 C   0  0  0  0  0  0  0  0  0  0  0  0
    9.3617   17.4755  -15.3397 C   0  0  0  0  0  0  0  0  0  0  0  0
    9.8640   17.2158  -17.7621 N   0  0  0  0  0  0  0  0  0  0  0  0
  1  2  2  0
  2  3  1  0
  1  4  1  0
  2  5  1  0
  5  6  1  0
  6  7  1  0
  7  8  1  0
  8  9  1  0
  1 10  1  0
  5 11  2  0
  9 12  2  0
 11 13  1  0
  9 14  1  0
 14 15  1  0
 10 16  2  0
 11 16  1  0
 15 17  1  0
 12 18  1  0
 15 18  2  0
M  END
$$$$

     RDKit          3D

 18 20  0  0  0  0  0  0  0  0999 V2000
   16.9164   12.9958  -15.1088 C   0  0  0  0  0  0  0  0  0  0  0  0
   17.3100   14.0594  -15.5556 C   0  0  0  0  0  0  0  0  0  0  0  0
   16.7575   14.6385  -16.7412 C   0  0  0  0  0  0  0  0  0  0  0  0
   15.6605   14.0269  -17.3260 C   0  0  0  0  0  0  0  0  0  0  0  0
   15.1051   12.8741  -16.7424 C   0  0  0  0  0  0  0  0  0  0  0  0
   15.0406   14.5841  -18.5068 C   0  0  0  0  0  0  0  0  0  0  0  0
   13.8424   14.1013  -18.8802 C   0  0  0  0  0  0  0  0  0  0  0  0
   15.6615   15.4404  -19.2504 C   0  0  0  0  0  0  0  0  0  0  0  0
   13.9624   12.2796  -17.2774 C   0  0  0  0  0  0  0  0  0  0  0  0
   13.3233   12.9276  -18.3392 C   0  0  0  0  0  0  0  0  0  0  0  0
   15.7142   12.4868  -15.5327 C   0  0  0  0  0  0  0  0  0  0  0  0
   16.9125   16.1263  -19.1695 C   0  0  0  0  0  0  0  0  0  0  0  0
   13.1317   14.6661  -19.9346 C   0  0  0  0  0  0  0  0  0  0  0  0
   17.9315   15.5816  -19.8107 N   0  0  0  0  0  0  0  0  0  0  0  0
   14.8664   16.0614  -20.5963 C   0  0  0  0  0  0  0  0  0  0  0  0
   13.6985   15.5953  -20.7939 C   0  0  0  0  0  0  0  0  0  0  0  0
   12.3441   12.2807  -18.6399 O   0  0  0  0  0  0  0  0  0  0  0  0
   17.1940   16.9056  -18.1986 O   0  0  0  0  0  0  0  0  0  0  0  0
  1  2  2  0
  2  3  1  0
  3  4  2  0
  4  5  1  0
  4  6  1  0
  6  7  1  0
  6  8  2  0
  5  9  1  0
  7 10  1  0
  9 10  1  0
  1 11  1  0
  5 11  2  0
  8 12  1  0
  7 13  2  0
 12 14  1  0
  8 15  1  0
 13 16  1  0
 15 16  2  0
 10 17  2  0
 12 18  2  0
M  END
$$$$

     RDKit          3D

 19 21  0  0  0  0  0  0  0  0999 V2000
   16.9164   12.9958  -15.1088 C   0  0  0  0  0  0  0  0  0  0  0  0
   17.3100   14.0594  -15.5556 C   0  0  0  0  0  0  0  0  0  0  0  0
   16.7445   14.6581  -16.7217 C   0  0  0  0  0  0  0  0  0  0  0  0
   15.7012   13.9025  -17.3202 C   0  0  0  0  0  0  0  0  0  0  0  0
   17.4064   12.4536  -13.8112 O   0  0  0  0  0  0  0  0  0  0  0  0
   15.0655   14.4334  -18.5695 C   0  0  0  0  0  0  0  0  0  0  0  0
   15.8983   12.2372  -15.7269 C   0  0  0  0  0  0  0  0  0  0  0  0
   14.0653   15.1352  -18.5312 N   0  0  0  0  0  0  0  0  0  0  0  0
   15.8296   14.4946  -19.6741 O   0  0  0  0  0  0  0  0  0  0  0  0
   12.9849   15.2092  -17.7598 C   0  0  0  0  0  0  0  0  0  0  0  0
   12.0154   16.1743  -17.9380 C   0  0  0  0  0  0  0  0  0  0  0  0
   15.3059   12.6934  -16.8639 C   0  0  0  0  0  0  0  0  0  0  0  0
   12.2610   17.2350  -18.7023 C   0  0  0  0  0  0  0  0  0  0  0  0
   13.4732   17.4926  -19.3687 C   0  0  0  0  0  0  0  0  0  0  0  0
   10.7020   16.2601  -17.2012 C   0  0  0  0  0  0  0  0  0  0  0  0
   10.0250   17.2137  -17.2813 C   0  0  0  0  0  0  0  0  0  0  0  0
   10.1654   18.2757  -18.1804 C   0  0  0  0  0  0  0  0  0  0  0  0
   14.3093   16.2665  -19.5527 C   0  0  0  0  0  0  0  0  0  0  0  0
   11.1851   18.3420  -18.7167 C   0  0  0  0  0  0  0  0  0  0  0  0
  1  2  1  0
  2  3  2  0
  3  4  1  0
  1  5  1  0
  4  6  1  0
  1  7  2  0
  6  8  1  0
  6  9  2  0
  8 10  1  0
 10 11  1  0
  4 12  2  0
  7 12  1  0
 11 13  2  0
 13 14  1  0
 11 15  1  0
 15 16  2  0
 16 17  1  0
  8 18  1  0
 14 18  1  0
 13 19  1  0
 17 19  2  0
M  END
$$$$

     RDKit          3D

 19 21  0  0  0  0  0  0  0  0999 V2000
   16.9164   12.9958  -15.1088 C   0  0  0  0  0  0  0  0  0  0  0  0
   17.3100   14.0594  -15.5556 C   0  0  0  0  0  0  0  0  0  0  0  0
   16.7445   14.6581  -16.7217 C   0  0  0  0  0  0  0  0  0  0  0  0
   15.7012   13.9025  -17.3202 C   0  0  0  0  0  0  0  0  0  0  0  0
   17.4064   12.4536  -13.8112 O   0  0  0  0  0  0  0  0  0  0  0  0
   15.0655   14.4334  -18.5695 C   0  0  0  0  0  0  0  0  0  0  0  0
   15.8983   12.2372  -15.7269 C   0  0  0  0  0  0  0  0  0  0  0  0
   14.0653   15.1352  -18.5312 N   0  0  0  0  0  0  0  0  0  0  0  0
   15.8296   14.4946  -19.6741 O   0  0  0  0  0  0  0  0  0  0  0  0
   12.9849   15.2092  -17.7598 C   0  0  0  0  0  0  0  0  0  0  0  0
   12.0154   16.1743  -17.9380 C   0  0  0  0  0  0  0  0  0  0  0  0
   15.3059   12.6934  -16.8639 C   0  0  0  0  0  0  0  0  0  0  0  0
   12.2610   17.2350  -18.7023 C   0  0  0  0  0  0  0  0  0  0  0  0
   13.4732   17.4926  -19.3687 C   0  0  0  0  0  0  0  0  0  0  0  0
   10.7020   16.2601  -17.2012 C   0  0  0  0  0  0  0  0  0  0  0  0
   10.0250   17.2137  -17.2813 C   0  0  0  0  0  0  0  0  0  0  0  0
   10.1654   18.2757  -18.1804 C   0  0  0  0  0  0  0  0  0  0  0  0
   14.4564   16.4153  -19.1793 C   0  0  0  0  0  0  0  0  0  0  0  0
   11.2289   18.3582  -18.7153 C   0  0  0  0  0  0  0  0  0  0  0  0
  1  2  1  0
  2  3  2  0
  3  4  1  0
  1  5  1  0
  4  6  1  0
  1  7  2  0
  6  8  1  0
  6  9  2  0
  8 10  1  0
 10 11  1  0
  4 12  2  0
  7 12  1  0
 11 13  2  0
 13 14  1  0
 11 15  1  0
 15 16  2  0
 16 17  1  0
  8 18  1  0
 14 18  2  0
 13 19  1  0
 17 19  2  0
M  END
$$$$

     RDKit          3D

 19 21  0  0  0  0  0  0  0  0999 V2000
   16.9164   12.9958  -15.1088 C   0  0  0  0  0  0  0  0  0  0  0  0
   17.3100   14.0594  -15.5556 C   0  0  0  0  0  0  0  0  0  0  0  0
   15.7150   12.5123  -15.7129 C   0  0  0  0  0  0  0  0  0  0  0  0
   15.1567   13.1297  -16.7792 C   0  0  0  0  0  0  0  0  0  0  0  0
   18.5285   14.7565  -15.0036 F   0  0  0  0  0  0  0  0  0  0  0  0
   13.9273   12.5843  -17.4005 C   0  0  0  0  0  0  0  0  0  0  0  0
   13.3493   13.3515  -18.3501 C   0  0  0  0  0  0  0  0  0  0  0  0
   12.1241   12.9565  -18.9486 O   0  0  0  0  0  0  0  0  0  0  0  0
   11.4337   13.7784  -19.7714 C   0  0  0  0  0  0  0  0  0  0  0  0
   10.4103   14.4564  -19.0874 C   0  0  0  0  0  0  0  0  0  0  0  0
   16.7895   14.7867  -16.6825 C   0  0  0  0  0  0  0  0  0  0  0  0
   15.7135   14.2544  -17.3422 C   0  0  0  0  0  0  0  0  0  0  0  0
   10.1946   15.7491  -19.2769 C   0  0  0  0  0  0  0  0  0  0  0  0
    9.4106   13.7349  -18.3261 C   0  0  0  0  0  0  0  0  0  0  0  0
    8.5005   14.5353  -17.6658 C   0  0  0  0  0  0  0  0  0  0  0  0
   15.1234   14.9323  -18.4286 C   0  0  0  0  0  0  0  0  0  0  0  0
    9.1963   16.3832  -18.3941 C   0  0  0  0  0  0  0  0  0  0  0  0
    8.3708   15.7968  -17.7042 C   0  0  0  0  0  0  0  0  0  0  0  0
   14.0456   14.5129  -18.9984 C   0  0  0  0  0  0  0  0  0  0  0  0
  1  2  1  0
  1  3  2  0
  3  4  1  0
  2  5  1  0
  4  6  1  0
  6  7  2  0
  7  8  1  0
  8  9  1  0
  9 10  1  0
  2 11  2  0
  4 12  2  0
 11 12  1  0
 10 13  2  0
 10 14  1  0
 14 15  2  0
 12 16  1  0
 13 17  1  0
 15 18  1  0
 17 18  2  0
  7 19  1  0
 16 19  2  0
M  END
$$$$

     RDKit          3D

 19 20  0  0  0  0  0  0  0  0999 V2000
   17.0550   13.7902  -15.7944 C   0  0  0  0  0  0  0  0  0  0  0  0
   15.8599   13.4015  -16.0331 C   0  0  0  0  0  0  0  0  0  0  0  0
   15.1524   13.7648  -17.2038 C   0  0  0  0  0  0  0  0  0  0  0  0
   13.7852   13.3829  -17.4515 C   0  0  0  0  0  0  0  0  0  0  0  0
   13.2804   12.3145  -17.0143 O   0  0  0  0  0  0  0  0  0  0  0  0
   17.7070   14.7918  -16.5460 C   0  0  0  0  0  0  0  0  0  0  0  0
   12.9158   14.2466  -18.0725 N   0  0  0  0  0  0  0  0  0  0  0  0
   13.3795   15.5212  -18.6096 C   0  0  0  0  0  0  0  0  0  0  0  0
   11.6040   13.7754  -18.4334 C   0  0  0  0  0  0  0  0  0  0  0  0
   11.4503   13.0501  -19.5984 C   0  0  0  0  0  0  0  0  0  0  0  0
   10.5468   14.4606  -17.8440 C   0  0  0  0  0  0  0  0  0  0  0  0
   15.8726   14.6697  -18.0727 C   0  0  0  0  0  0  0  0  0  0  0  0
   10.1870   12.7221  -19.9783 C   0  0  0  0  0  0  0  0  0  0  0  0
    9.2181   14.1405  -18.2599 C   0  0  0  0  0  0  0  0  0  0  0  0
   10.5934   15.4809  -16.7418 C   0  0  0  0  0  0  0  0  0  0  0  0
   17.1098   15.1266  -17.7542 C   0  0  0  0  0  0  0  0  0  0  0  0
   11.4127   16.3722  -16.6356 O   0  0  0  0  0  0  0  0  0  0  0  0
    9.0333   13.2692  -19.3773 C   0  0  0  0  0  0  0  0  0  0  0  0
    9.8559   15.1812  -15.6204 N   0  0  0  0  0  0  0  0  0  0  0  0
  1  2  1  0
  2  3  2  0
  3  4  1  0
  4  5  2  0
  1  6  2  0
  4  7  1  0
  7  8  1  0
  7  9  1  0
  9 10  1  0
  9 11  2  0
  3 12  1  0
 10 13  2  0
 11 14  1  0
 11 15  1  0
  6 16  1  0
 12 16  2  0
 15 17  2  0
 13 18  1  0
 14 18  2  0
 15 19  1  0
M  END
$$$$

     RDKit          3D

 19 20  0  0  0  0  0  0  0  0999 V2000
   16.9164   12.9958  -15.1088 C   0  0  0  0  0  0  0  0  0  0  0  0
   15.8006   12.6958  -15.6501 C   0  0  0  0  0  0  0  0  0  0  0  0
   14.7476   11.9962  -15.0575 F   0  0  0  0  0  0  0  0  0  0  0  0
   17.2314   12.5241  -13.8056 O   0  0  0  0  0  0  0  0  0  0  0  0
   15.3023   13.4231  -16.8588 C   0  0  0  0  0  0  0  0  0  0  0  0
   14.0394   13.1585  -17.4243 C   0  0  0  0  0  0  0  0  0  0  0  0
   13.0019   13.9615  -17.1809 N   0  0  0  0  0  0  0  0  0  0  0  0
   12.3528   14.7188  -18.1206 C   0  0  0  0  0  0  0  0  0  0  0  0
   11.3472   15.5978  -17.7157 C   0  0  0  0  0  0  0  0  0  0  0  0
   11.1388   15.9502  -16.5297 C   0  0  0  0  0  0  0  0  0  0  0  0
   10.2777   15.8311  -18.6384 C   0  0  0  0  0  0  0  0  0  0  0  0
    9.3094   16.6673  -17.8206 C   0  0  0  0  0  0  0  0  0  0  0  0
   16.3163   14.1712  -17.5279 C   0  0  0  0  0  0  0  0  0  0  0  0
    9.8778   16.7014  -16.4986 N   0  0  0  0  0  0  0  0  0  0  0  0
   16.0329   14.8010  -18.8346 C   0  0  0  0  0  0  0  0  0  0  0  0
   15.9321   16.0633  -18.8955 O   0  0  0  0  0  0  0  0  0  0  0  0
   17.8838   13.8813  -15.6642 C   0  0  0  0  0  0  0  0  0  0  0  0
   15.9684   14.0995  -19.8542 O   0  0  0  0  0  0  0  0  0  0  0  0
   17.5430   14.4694  -16.9056 C   0  0  0  0  0  0  0  0  0  0  0  0
  1  2  2  0
  2  3  1  0
  1  4  1  0
  2  5  1  0
  5  6  1  0
  6  7  1  0
  7  8  1  0
  8  9  1  0
  9 10  1  0
  9 11  2  0
 11 12  1  0
  5 13  2  0
 10 14  1  0
 12 14  1  0
 13 15  1  0
 15 16  1  0
  1 17  1  0
 15 18  2  0
 13 19  1  0
 17 19  2  0
M  END
$$$$

     RDKit          3D

 19 20  0  0  0  0  0  0  0  0999 V2000
   16.9164   12.9958  -15.1088 C   0  0  0  0  0  0  0  0  0  0  0  0
   15.8006   12.6958  -15.6501 C   0  0  0  0  0  0  0  0  0  0  0  0
   14.7476   11.9962  -15.0575 F   0  0  0  0  0  0  0  0  0  0  0  0
   17.2314   12.5241  -13.8056 O   0  0  0  0  0  0  0  0  0  0  0  0
   15.3023   13.4231  -16.8588 C   0  0  0  0  0  0  0  0  0  0  0  0
   14.0394   13.1585  -17.4243 C   0  0  0  0  0  0  0  0  0  0  0  0
   13.0019   13.9615  -17.1809 N   0  0  0  0  0  0  0  0  0  0  0  0
   12.3528   14.7188  -18.1206 C   0  0  0  0  0  0  0  0  0  0  0  0
   16.1948   14.4280  -17.2690 C   0  0  0  0  0  0  0  0  0  0  0  0
   17.7749   14.0813  -15.5265 C   0  0  0  0  0  0  0  0  0  0  0  0
   12.6696   14.6389  -19.3475 O   0  0  0  0  0  0  0  0  0  0  0  0
   11.4523   15.7782  -17.6916 C   0  0  0  0  0  0  0  0  0  0  0  0
   17.3700   14.7049  -16.7118 C   0  0  0  0  0  0  0  0  0  0  0  0
   10.2084   15.3469  -17.3980 C   0  0  0  0  0  0  0  0  0  0  0  0
   11.8096   17.0488  -17.2803 C   0  0  0  0  0  0  0  0  0  0  0  0
   13.0209   17.7479  -17.5329 C   0  0  0  0  0  0  0  0  0  0  0  0
    9.3781   14.2122  -17.5841 C   0  0  0  0  0  0  0  0  0  0  0  0
    9.2100   16.5739  -16.7881 C   0  0  0  0  0  0  0  0  0  0  0  0
   10.4238   17.7384  -16.7936 C   0  0  0  0  0  0  0  0  0  0  0  0
  1  2  2  0
  2  3  1  0
  1  4  1  0
  2  5  1  0
  5  6  1  0
  6  7  1  0
  7  8  1  0
  5  9  2  0
  1 10  1  0
  8 11  2  0
  8 12  1  0
  9 13  1  0
 10 13  2  0
 12 14  2  0
 12 15  1  0
 15 16  1  0
 14 17  1  0
 14 18  1  0
 15 19  1  0
 18 19  2  0
M  END
$$$$

     RDKit          3D

 19 20  0  0  0  0  0  0  0  0999 V2000
   16.9164   12.9958  -15.1088 C   0  0  0  0  0  0  0  0  0  0  0  0
   17.3100   14.0594  -15.5556 C   0  0  0  0  0  0  0  0  0  0  0  0
   18.3666   14.8571  -15.0574 F   0  0  0  0  0  0  0  0  0  0  0  0
   17.4927   12.4099  -13.8844 O   0  0  0  0  0  0  0  0  0  0  0  0
   16.5565   14.7887  -16.6537 C   0  0  0  0  0  0  0  0  0  0  0  0
   17.0743   15.9500  -17.3240 C   0  0  0  0  0  0  0  0  0  0  0  0
   15.3533   14.1555  -17.1084 C   0  0  0  0  0  0  0  0  0  0  0  0
   14.6642   14.6666  -18.2883 O   0  0  0  0  0  0  0  0  0  0  0  0
   13.4598   14.1149  -18.3691 C   0  0  0  0  0  0  0  0  0  0  0  0
   12.5199   14.4160  -17.4913 C   0  0  0  0  0  0  0  0  0  0  0  0
   13.0233   14.3811  -19.8539 C   0  0  0  0  0  0  0  0  0  0  0  0
   11.1583   14.6281  -17.9559 C   0  0  0  0  0  0  0  0  0  0  0  0
   10.2417   15.3423  -17.1551 C   0  0  0  0  0  0  0  0  0  0  0  0
   10.5654   16.3260  -16.3584 C   0  0  0  0  0  0  0  0  0  0  0  0
   14.9485   12.9802  -16.4457 C   0  0  0  0  0  0  0  0  0  0  0  0
    9.5408   16.9919  -15.7517 C   0  0  0  0  0  0  0  0  0  0  0  0
   15.7351   12.3311  -15.5657 C   0  0  0  0  0  0  0  0  0  0  0  0
    8.8359   15.3331  -17.5354 C   0  0  0  0  0  0  0  0  0  0  0  0
    8.2850   16.3546  -16.5489 C   0  0  0  0  0  0  0  0  0  0  0  0
  1  2  2  0
  2  3  1  0
  1  4  1  0
  2  5  1  0
  5  6  1  0
  5  7  2  0
  7  8  1  0
  8  9  1  0
  9 10  1  0
  9 11  1  0
 10 12  1  0
 12 13  1  0
 13 14  2  0
  7 15  1  0
 14 16  1  0
  1 17  1  0
 15 17  2  0
 13 18  1  0
 16 19  2  0
 18 19  1  0
M  END
$$$$

     RDKit          3D

 19 20  0  0  0  0  0  0  0  0999 V2000
   16.9164   12.9958  -15.1088 C   0  0  0  0  0  0  0  0  0  0  0  0
   17.3100   14.0594  -15.5556 C   0  0  0  0  0  0  0  0  0  0  0  0
   18.3666   14.8571  -15.0574 F   0  0  0  0  0  0  0  0  0  0  0  0
   17.4927   12.4099  -13.8844 O   0  0  0  0  0  0  0  0  0  0  0  0
   16.5565   14.7887  -16.6537 C   0  0  0  0  0  0  0  0  0  0  0  0
   17.0743   15.9500  -17.3240 C   0  0  0  0  0  0  0  0  0  0  0  0
   15.3533   14.1555  -17.1084 C   0  0  0  0  0  0  0  0  0  0  0  0
   14.6642   14.6666  -18.2883 O   0  0  0  0  0  0  0  0  0  0  0  0
   13.4598   14.1149  -18.3691 C   0  0  0  0  0  0  0  0  0  0  0  0
   12.5199   14.4160  -17.4913 C   0  0  0  0  0  0  0  0  0  0  0  0
   13.0233   14.3811  -19.8539 C   0  0  0  0  0  0  0  0  0  0  0  0
   11.1583   14.6281  -17.9559 C   0  0  0  0  0  0  0  0  0  0  0  0
   10.2417   15.3423  -17.1551 C   0  0  0  0  0  0  0  0  0  0  0  0
   10.5654   16.3260  -16.3584 C   0  0  0  0  0  0  0  0  0  0  0  0
   14.9485   12.9802  -16.4457 C   0  0  0  0  0  0  0  0  0  0  0  0
    9.5408   16.9919  -15.7517 C   0  0  0  0  0  0  0  0  0  0  0  0
   15.7351   12.3311  -15.5657 C   0  0  0  0  0  0  0  0  0  0  0  0
    8.8359   15.3331  -17.5354 C   0  0  0  0  0  0  0  0  0  0  0  0
    8.2850   16.3546  -16.5489 N   0  0  0  0  0  0  0  0  0  0  0  0
  1  2  2  0
  2  3  1  0
  1  4  1  0
  2  5  1  0
  5  6  1  0
  5  7  2  0
  7  8  1  0
  8  9  1  0
  9 10  1  0
  9 11  1  0
 10 12  1  0
 12 13  1  0
 13 14  2  0
  7 15  1  0
 14 16  1  0
  1 17  1  0
 15 17  2  0
 13 18  1  0
 16 19  1  0
 18 19  1  0
M  END
$$$$

     RDKit          3D

 19 20  0  0  0  0  0  0  0  0999 V2000
   16.9164   12.9958  -15.1088 C   0  0  0  0  0  0  0  0  0  0  0  0
   15.8006   12.6958  -15.6501 C   0  0  0  0  0  0  0  0  0  0  0  0
   15.3466   13.2197  -16.8853 C   0  0  0  0  0  0  0  0  0  0  0  0
   14.0481   12.9095  -17.4513 C   0  0  0  0  0  0  0  0  0  0  0  0
   16.1836   14.1689  -17.5433 C   0  0  0  0  0  0  0  0  0  0  0  0
   13.3137   12.0780  -17.1725 O   0  0  0  0  0  0  0  0  0  0  0  0
   17.2906   12.5441  -13.8400 O   0  0  0  0  0  0  0  0  0  0  0  0
   13.5587   13.8814  -18.3875 N   0  0  0  0  0  0  0  0  0  0  0  0
   17.7757   14.0160  -15.6917 C   0  0  0  0  0  0  0  0  0  0  0  0
   12.3675   13.9288  -18.9621 C   0  0  0  0  0  0  0  0  0  0  0  0
   12.0110   13.1645  -19.9694 C   0  0  0  0  0  0  0  0  0  0  0  0
   11.3445   14.8573  -18.4139 C   0  0  0  0  0  0  0  0  0  0  0  0
   15.8564   14.7404  -18.8411 O   0  0  0  0  0  0  0  0  0  0  0  0
   10.1702   14.7343  -19.1774 C   0  0  0  0  0  0  0  0  0  0  0  0
   11.4637   15.7466  -17.3012 C   0  0  0  0  0  0  0  0  0  0  0  0
   10.4797   13.6021  -20.3447 S   0  0  0  0  0  0  0  0  0  0  0  0
   10.6766   15.6671  -16.3656 C   0  0  0  0  0  0  0  0  0  0  0  0
   11.6938   17.1846  -17.8091 C   0  0  0  0  0  0  0  0  0  0  0  0
   17.3822   14.5575  -16.9360 C   0  0  0  0  0  0  0  0  0  0  0  0
  1  2  1  0
  2  3  2  0
  3  4  1  0
  3  5  1  0
  4  6  2  0
  1  7  1  0
  4  8  1  0
  1  9  2  0
  8 10  1  0
 10 11  2  0
 10 12  1  0
  5 13  1  0
 12 14  2  0
 12 15  1  0
 11 16  1  0
 14 16  1  0
 15 17  1  0
 15 18  1  0
  5 19  2  0
  9 19  1  0
M  END
$$$$

     RDKit          3D

 19 20  0  0  0  0  0  0  0  0999 V2000
   17.0550   13.7902  -15.7944 C   0  0  0  0  0  0  0  0  0  0  0  0
   15.8599   13.4015  -16.0331 C   0  0  0  0  0  0  0  0  0  0  0  0
   15.1524   13.7648  -17.2038 C   0  0  0  0  0  0  0  0  0  0  0  0
   13.7852   13.3829  -17.4515 C   0  0  0  0  0  0  0  0  0  0  0  0
   13.2804   12.3145  -17.0143 O   0  0  0  0  0  0  0  0  0  0  0  0
   17.7070   14.7918  -16.5460 C   0  0  0  0  0  0  0  0  0  0  0  0
   12.9158   14.2466  -18.0725 N   0  0  0  0  0  0  0  0  0  0  0  0
   15.8649   14.6091  -18.0730 C   0  0  0  0  0  0  0  0  0  0  0  0
   11.7312   14.1461  -18.4769 C   0  0  0  0  0  0  0  0  0  0  0  0
   11.3791   13.2612  -19.4547 C   0  0  0  0  0  0  0  0  0  0  0  0
   12.3110   12.4162  -20.2071 C   0  0  0  0  0  0  0  0  0  0  0  0
   10.7389   15.2205  -18.1737 C   0  0  0  0  0  0  0  0  0  0  0  0
   11.0404   16.2538  -17.2316 C   0  0  0  0  0  0  0  0  0  0  0  0
    9.9533   17.0478  -16.8739 C   0  0  0  0  0  0  0  0  0  0  0  0
   12.1881   11.1875  -20.1861 O   0  0  0  0  0  0  0  0  0  0  0  0
   17.0890   15.1307  -17.7677 C   0  0  0  0  0  0  0  0  0  0  0  0
    8.7137   16.6486  -17.4545 C   0  0  0  0  0  0  0  0  0  0  0  0
   13.1208   13.0219  -20.9678 O   0  0  0  0  0  0  0  0  0  0  0  0
    9.1689   15.3874  -18.3623 C   0  0  0  0  0  0  0  0  0  0  0  0
  1  2  1  0
  2  3  2  0
  3  4  1  0
  4  5  2  0
  1  6  2  0
  4  7  1  0
  3  8  1  0
  7  9  1  0
  9 10  2  3
 10 11  1  0
  9 12  1  0
 12 13  1  0
 13 14  2  0
 11 15  1  0
  6 16  1  0
  8 16  2  0
 14 17  1  0
 11 18  2  0
 12 19  1  0
 17 19  2  0
M  END
$$$$

     RDKit          3D

 19 20  0  0  0  0  0  0  0  0999 V2000
   17.0550   13.7902  -15.7944 C   0  0  0  0  0  0  0  0  0  0  0  0
   15.8599   13.4015  -16.0331 C   0  0  0  0  0  0  0  0  0  0  0  0
   15.1524   13.7648  -17.2038 C   0  0  0  0  0  0  0  0  0  0  0  0
   13.7852   13.3829  -17.4515 C   0  0  0  0  0  0  0  0  0  0  0  0
   13.2804   12.3145  -17.0143 O   0  0  0  0  0  0  0  0  0  0  0  0
   17.7070   14.7918  -16.5460 C   0  0  0  0  0  0  0  0  0  0  0  0
   12.9158   14.2466  -18.0725 N   0  0  0  0  0  0  0  0  0  0  0  0
   15.8649   14.6091  -18.0730 C   0  0  0  0  0  0  0  0  0  0  0  0
   11.7312   14.1461  -18.4769 C   0  0  0  0  0  0  0  0  0  0  0  0
   11.3791   13.2612  -19.4547 C   0  0  0  0  0  0  0  0  0  0  0  0
   12.3110   12.4162  -20.2071 C   0  0  0  0  0  0  0  0  0  0  0  0
   10.7389   15.2205  -18.1737 C   0  0  0  0  0  0  0  0  0  0  0  0
   11.0404   16.2538  -17.2316 C   0  0  0  0  0  0  0  0  0  0  0  0
   10.2183   16.4285  -16.2857 C   0  0  0  0  0  0  0  0  0  0  0  0
   17.0898   15.1220  -17.7701 C   0  0  0  0  0  0  0  0  0  0  0  0
    9.5402   15.1970  -18.8170 C   0  0  0  0  0  0  0  0  0  0  0  0
    8.7837   16.6763  -16.8319 C   0  0  0  0  0  0  0  0  0  0  0  0
    8.5885   16.0778  -18.1635 C   0  0  0  0  0  0  0  0  0  0  0  0
   13.1622   12.9705  -20.9633 O   0  0  0  0  0  0  0  0  0  0  0  0
  1  2  1  0
  2  3  2  0
  3  4  1  0
  4  5  2  0
  1  6  2  0
  4  7  1  0
  3  8  1  0
  7  9  1  0
  9 10  2  3
 10 11  1  0
  9 12  1  0
 12 13  1  0
 13 14  1  0
  6 15  1  0
  8 15  2  0
 12 16  2  0
 14 17  1  0
 16 18  1  0
 17 18  2  0
 11 19  2  0
M  END
$$$$

     RDKit          3D

 19 20  0  0  0  0  0  0  0  0999 V2000
   16.9164   12.9958  -15.1088 C   0  0  0  0  0  0  0  0  0  0  0  0
   15.8006   12.6958  -15.6501 C   0  0  0  0  0  0  0  0  0  0  0  0
   15.3466   13.2197  -16.8853 C   0  0  0  0  0  0  0  0  0  0  0  0
   14.0481   12.9095  -17.4513 C   0  0  0  0  0  0  0  0  0  0  0  0
   16.1836   14.1689  -17.5433 C   0  0  0  0  0  0  0  0  0  0  0  0
   13.3137   12.0780  -17.1725 O   0  0  0  0  0  0  0  0  0  0  0  0
   17.2906   12.5441  -13.8400 O   0  0  0  0  0  0  0  0  0  0  0  0
   13.5587   13.8814  -18.3875 N   0  0  0  0  0  0  0  0  0  0  0  0
   17.7757   14.0160  -15.6917 C   0  0  0  0  0  0  0  0  0  0  0  0
   12.3675   13.9288  -18.9621 C   0  0  0  0  0  0  0  0  0  0  0  0
   12.0110   13.1645  -19.9694 C   0  0  0  0  0  0  0  0  0  0  0  0
   11.3445   14.8573  -18.4139 C   0  0  0  0  0  0  0  0  0  0  0  0
   15.8564   14.7404  -18.8411 O   0  0  0  0  0  0  0  0  0  0  0  0
   10.1702   14.7343  -19.1774 C   0  0  0  0  0  0  0  0  0  0  0  0
    9.0809   15.6562  -18.6154 O   0  0  0  0  0  0  0  0  0  0  0  0
   17.3759   14.5689  -16.9364 C   0  0  0  0  0  0  0  0  0  0  0  0
    9.8731   13.9173  -20.1962 C   0  0  0  0  0  0  0  0  0  0  0  0
   10.8424   13.1162  -20.6019 C   0  0  0  0  0  0  0  0  0  0  0  0
    9.2239   16.2907  -17.4398 C   0  0  0  0  0  0  0  0  0  0  0  0
  1  2  1  0
  2  3  2  0
  3  4  1  0
  3  5  1  0
  4  6  2  0
  1  7  1  0
  4  8  1  0
  1  9  2  0
  8 10  1  0
 10 11  2  0
 10 12  1  0
  5 13  1  0
 12 14  2  0
 14 15  1  0
  5 16  2  0
  9 16  1  0
 14 17  1  0
 11 18  1  0
 17 18  2  0
 15 19  1  0
M  END
$$$$

     RDKit          3D

 19 20  0  0  0  0  0  0  0  0999 V2000
   17.0550   13.7902  -15.7944 C   0  0  0  0  0  0  0  0  0  0  0  0
   15.8599   13.4015  -16.0331 C   0  0  0  0  0  0  0  0  0  0  0  0
   15.1013   12.5227  -15.2103 F   0  0  0  0  0  0  0  0  0  0  0  0
   15.0924   14.0422  -17.0268 C   0  0  0  0  0  0  0  0  0  0  0  0
   17.7028   14.7340  -16.5681 C   0  0  0  0  0  0  0  0  0  0  0  0
   13.6815   13.6236  -17.3356 C   0  0  0  0  0  0  0  0  0  0  0  0
   15.7700   14.9619  -17.9285 C   0  0  0  0  0  0  0  0  0  0  0  0
   13.4873   12.7620  -18.2422 O   0  0  0  0  0  0  0  0  0  0  0  0
   12.7448   14.0481  -16.5631 N   0  0  0  0  0  0  0  0  0  0  0  0
   15.0337   15.5338  -19.0817 C   0  0  0  0  0  0  0  0  0  0  0  0
   17.1378   15.3033  -17.5742 C   0  0  0  0  0  0  0  0  0  0  0  0
   11.3429   14.0307  -16.8673 C   0  0  0  0  0  0  0  0  0  0  0  0
   10.5474   14.9445  -16.0329 C   0  0  0  0  0  0  0  0  0  0  0  0
   15.3595   15.1150  -20.2859 N   0  0  0  0  0  0  0  0  0  0  0  0
   14.4122   16.7243  -18.9749 C   0  0  0  0  0  0  0  0  0  0  0  0
    9.1845   14.9939  -16.1868 C   0  0  0  0  0  0  0  0  0  0  0  0
   13.7827   17.2922  -20.0743 C   0  0  0  0  0  0  0  0  0  0  0  0
   13.9804   16.7106  -21.3132 C   0  0  0  0  0  0  0  0  0  0  0  0
   14.7616   15.6093  -21.4105 C   0  0  0  0  0  0  0  0  0  0  0  0
  1  2  1  0
  2  3  1  0
  2  4  2  0
  1  5  2  0
  4  6  1  0
  4  7  1  0
  6  8  2  0
  6  9  1  0
  7 10  1  0
  5 11  1  0
  7 11  2  0
  9 12  1  0
 12 13  1  0
 10 14  2  0
 10 15  1  0
 13 16  2  0
 15 17  2  0
 17 18  1  0
 14 19  1  0
 18 19  2  0
M  END
$$$$

     RDKit          3D

 19 20  0  0  0  0  0  0  0  0999 V2000
   17.0550   13.7902  -15.7944 C   0  0  0  0  0  0  0  0  0  0  0  0
   15.8599   13.4015  -16.0331 C   0  0  0  0  0  0  0  0  0  0  0  0
   15.1524   13.7648  -17.2038 C   0  0  0  0  0  0  0  0  0  0  0  0
   13.7852   13.3829  -17.4515 C   0  0  0  0  0  0  0  0  0  0  0  0
   13.2804   12.3145  -17.0143 O   0  0  0  0  0  0  0  0  0  0  0  0
   17.7070   14.7918  -16.5460 C   0  0  0  0  0  0  0  0  0  0  0  0
   12.9158   14.2466  -18.0725 N   0  0  0  0  0  0  0  0  0  0  0  0
   13.3795   15.5212  -18.6096 C   0  0  0  0  0  0  0  0  0  0  0  0
   11.6040   13.7754  -18.4334 C   0  0  0  0  0  0  0  0  0  0  0  0
   11.4503   13.0501  -19.5984 C   0  0  0  0  0  0  0  0  0  0  0  0
   10.5468   14.4606  -17.8440 C   0  0  0  0  0  0  0  0  0  0  0  0
   15.8726   14.6697  -18.0727 C   0  0  0  0  0  0  0  0  0  0  0  0
   10.1870   12.7221  -19.9783 C   0  0  0  0  0  0  0  0  0  0  0  0
    9.2181   14.1405  -18.2599 C   0  0  0  0  0  0  0  0  0  0  0  0
   17.1257   15.0604  -17.8039 C   0  0  0  0  0  0  0  0  0  0  0  0
   10.6649   15.3891  -16.7114 C   0  0  0  0  0  0  0  0  0  0  0  0
    9.0110   13.2910  -19.3767 C   0  0  0  0  0  0  0  0  0  0  0  0
    9.7577   15.7560  -16.0916 C   0  0  0  0  0  0  0  0  0  0  0  0
    9.8422   16.7092  -15.0140 C   0  0  0  0  0  0  0  0  0  0  0  0
  1  2  1  0
  2  3  2  0
  3  4  1  0
  4  5  2  0
  1  6  2  0
  4  7  1  0
  7  8  1  0
  7  9  1  0
  9 10  1  0
  9 11  2  0
  3 12  1  0
 10 13  2  0
 11 14  1  0
  6 15  1  0
 12 15  2  0
 11 16  1  0
 13 17  1  0
 14 17  2  0
 16 18  2  3
 18 19  1  0
M  END
$$$$

     RDKit          3D

 19 20  0  0  0  0  0  0  0  0999 V2000
   17.0550   13.7902  -15.7944 C   0  0  0  0  0  0  0  0  0  0  0  0
   15.8599   13.4015  -16.0331 C   0  0  0  0  0  0  0  0  0  0  0  0
   15.1524   13.7648  -17.2038 C   0  0  0  0  0  0  0  0  0  0  0  0
   13.7852   13.3829  -17.4515 C   0  0  0  0  0  0  0  0  0  0  0  0
   13.2804   12.3145  -17.0143 O   0  0  0  0  0  0  0  0  0  0  0  0
   17.7070   14.7918  -16.5460 C   0  0  0  0  0  0  0  0  0  0  0  0
   12.9158   14.2466  -18.0725 N   0  0  0  0  0  0  0  0  0  0  0  0
   15.8649   14.6091  -18.0730 C   0  0  0  0  0  0  0  0  0  0  0  0
   11.7312   14.1461  -18.4769 C   0  0  0  0  0  0  0  0  0  0  0  0
   11.3791   13.2612  -19.4547 C   0  0  0  0  0  0  0  0  0  0  0  0
   12.3110   12.4162  -20.2071 C   0  0  0  0  0  0  0  0  0  0  0  0
   10.7389   15.2205  -18.1737 C   0  0  0  0  0  0  0  0  0  0  0  0
   11.0404   16.2538  -17.2316 C   0  0  0  0  0  0  0  0  0  0  0  0
   10.2183   16.4285  -16.2857 C   0  0  0  0  0  0  0  0  0  0  0  0
   17.0898   15.1220  -17.7701 C   0  0  0  0  0  0  0  0  0  0  0  0
    9.9447   13.0696  -19.8644 C   0  0  0  0  0  0  0  0  0  0  0  0
    9.5616   12.0304  -20.7666 C   0  0  0  0  0  0  0  0  0  0  0  0
   10.5779   11.3492  -21.4792 C   0  0  0  0  0  0  0  0  0  0  0  0
   11.9361   11.5029  -21.1299 C   0  0  0  0  0  0  0  0  0  0  0  0
  1  2  1  0
  2  3  2  0
  3  4  1  0
  4  5  2  0
  1  6  2  0
  4  7  1  0
  3  8  1  0
  7  9  1  0
  9 10  2  3
 10 11  1  0
  9 12  1  0
 12 13  1  0
 13 14  1  0
  6 15  1  0
  8 15  2  0
 10 16  1  0
 16 17  1  0
 17 18  2  0
 11 19  2  0
 18 19  1  0
M  END
$$$$

     RDKit          3D

 20 21  0  0  0  0  0  0  0  0999 V2000
   16.9164   12.9958  -15.1088 C   0  0  0  0  0  0  0  0  0  0  0  0
   15.8006   12.6958  -15.6501 C   0  0  0  0  0  0  0  0  0  0  0  0
   14.7476   11.9962  -15.0575 F   0  0  0  0  0  0  0  0  0  0  0  0
   17.2314   12.5241  -13.8056 O   0  0  0  0  0  0  0  0  0  0  0  0
   15.3023   13.4231  -16.8588 C   0  0  0  0  0  0  0  0  0  0  0  0
   14.0394   13.1585  -17.4243 C   0  0  0  0  0  0  0  0  0  0  0  0
   13.0019   13.9615  -17.1809 N   0  0  0  0  0  0  0  0  0  0  0  0
   12.3528   14.7188  -18.1206 C   0  0  0  0  0  0  0  0  0  0  0  0
   11.3472   15.5978  -17.7157 C   0  0  0  0  0  0  0  0  0  0  0  0
   17.8108   14.0348  -15.6078 C   0  0  0  0  0  0  0  0  0  0  0  0
   16.2322   14.3299  -17.4918 C   0  0  0  0  0  0  0  0  0  0  0  0
   10.8404   16.4258  -18.5589 C   0  0  0  0  0  0  0  0  0  0  0  0
   10.7007   15.2967  -16.4684 C   0  0  0  0  0  0  0  0  0  0  0  0
   15.9253   14.9319  -18.7975 C   0  0  0  0  0  0  0  0  0  0  0  0
    9.6306   16.1346  -16.0633 C   0  0  0  0  0  0  0  0  0  0  0  0
   11.4142   16.7334  -19.8543 C   0  0  0  0  0  0  0  0  0  0  0  0
   17.4534   14.6362  -16.7538 C   0  0  0  0  0  0  0  0  0  0  0  0
    9.6248   17.2224  -18.0618 C   0  0  0  0  0  0  0  0  0  0  0  0
    9.0403   15.9087  -14.7710 C   0  0  0  0  0  0  0  0  0  0  0  0
    9.1196   17.0647  -16.9042 C   0  0  0  0  0  0  0  0  0  0  0  0
  1  2  2  0
  2  3  1  0
  1  4  1  0
  2  5  1  0
  5  6  1  0
  6  7  1  0
  7  8  1  0
  8  9  1  0
  1 10  1  0
  5 11  2  0
  9 12  2  0
  9 13  1  0
 11 14  1  0
 13 15  2  0
 12 16  1  0
 10 17  2  0
 11 17  1  0
 12 18  1  0
 15 19  1  0
 15 20  1  0
 18 20  2  0
M  END
$$$$

     RDKit          3D

 20 21  0  0  0  0  0  0  0  0999 V2000
   16.9164   12.9958  -15.1088 C   0  0  0  0  0  0  0  0  0  0  0  0
   17.3100   14.0594  -15.5556 C   0  0  0  0  0  0  0  0  0  0  0  0
   18.3666   14.8571  -15.0574 F   0  0  0  0  0  0  0  0  0  0  0  0
   17.4927   12.4099  -13.8844 O   0  0  0  0  0  0  0  0  0  0  0  0
   16.5565   14.7887  -16.6537 C   0  0  0  0  0  0  0  0  0  0  0  0
   17.0743   15.9500  -17.3240 C   0  0  0  0  0  0  0  0  0  0  0  0
   15.3533   14.1555  -17.1084 C   0  0  0  0  0  0  0  0  0  0  0  0
   14.6642   14.6666  -18.2883 O   0  0  0  0  0  0  0  0  0  0  0  0
   13.4598   14.1149  -18.3691 C   0  0  0  0  0  0  0  0  0  0  0  0
   12.5199   14.4160  -17.4913 C   0  0  0  0  0  0  0  0  0  0  0  0
   13.0233   14.3811  -19.8539 C   0  0  0  0  0  0  0  0  0  0  0  0
   11.1583   14.6281  -17.9559 C   0  0  0  0  0  0  0  0  0  0  0  0
   10.2417   15.3423  -17.1551 C   0  0  0  0  0  0  0  0  0  0  0  0
   10.5654   16.3260  -16.3584 C   0  0  0  0  0  0  0  0  0  0  0  0
   14.9485   12.9802  -16.4457 C   0  0  0  0  0  0  0  0  0  0  0  0
    8.8699   14.8881  -17.0074 C   0  0  0  0  0  0  0  0  0  0  0  0
   15.6595   12.4121  -15.4550 C   0  0  0  0  0  0  0  0  0  0  0  0
    8.3381   15.8544  -16.1034 N   0  0  0  0  0  0  0  0  0  0  0  0
   11.6933   17.1394  -16.1672 C   0  0  0  0  0  0  0  0  0  0  0  0
    9.2450   16.8678  -15.6573 N   0  0  0  0  0  0  0  0  0  0  0  0
  1  2  2  0
  2  3  1  0
  1  4  1  0
  2  5  1  0
  5  6  1  0
  5  7  2  0
  7  8  1  0
  8  9  1  0
  9 10  1  0
  9 11  1  0
 10 12  1  0
 12 13  1  0
 13 14  2  0
  7 15  1  0
 13 16  1  0
  1 17  1  0
 15 17  2  0
 16 18  2  0
 14 19  1  0
 14 20  1  0
 18 20  1  0
M  END
$$$$

     RDKit          3D

 20 22  0  0  0  0  0  0  0  0999 V2000
   16.9164   12.9958  -15.1088 C   0  0  0  0  0  0  0  0  0  0  0  0
   17.3100   14.0594  -15.5556 C   0  0  0  0  0  0  0  0  0  0  0  0
   16.7575   14.6385  -16.7412 C   0  0  0  0  0  0  0  0  0  0  0  0
   15.6605   14.0269  -17.3260 C   0  0  0  0  0  0  0  0  0  0  0  0
   15.1051   12.8741  -16.7424 C   0  0  0  0  0  0  0  0  0  0  0  0
   15.0406   14.5841  -18.5068 C   0  0  0  0  0  0  0  0  0  0  0  0
   13.8424   14.1013  -18.8802 C   0  0  0  0  0  0  0  0  0  0  0  0
   13.0518   14.6851  -19.8412 N   0  0  0  0  0  0  0  0  0  0  0  0
   11.8562   14.2259  -20.2715 C   0  0  0  0  0  0  0  0  0  0  0  0
   13.9710   12.2647  -17.3076 C   0  0  0  0  0  0  0  0  0  0  0  0
   13.2857   12.9858  -18.1957 C   0  0  0  0  0  0  0  0  0  0  0  0
   15.7500   12.3197  -15.5936 C   0  0  0  0  0  0  0  0  0  0  0  0
   13.7508   15.5925  -20.8282 C   0  0  0  0  0  0  0  0  0  0  0  0
   10.7259   14.7196  -19.4209 C   0  0  0  0  0  0  0  0  0  0  0  0
   10.0709   13.9485  -18.5544 C   0  0  0  0  0  0  0  0  0  0  0  0
   13.8043   16.8711  -20.4657 O   0  0  0  0  0  0  0  0  0  0  0  0
   13.8016   15.3566  -22.1395 O   0  0  0  0  0  0  0  0  0  0  0  0
   10.9492   16.0813  -18.7813 C   0  0  0  0  0  0  0  0  0  0  0  0
    9.1606   14.6637  -17.8026 C   0  0  0  0  0  0  0  0  0  0  0  0
    9.8031   16.0776  -17.7866 C   0  0  0  0  0  0  0  0  0  0  0  0
  1  2  2  0
  2  3  1  0
  3  4  2  0
  4  5  1  0
  4  6  1  0
  6  7  1  0
  7  8  1  0
  8  9  1  0
  5 10  1  0
  7 11  2  0
 10 11  1  0
  1 12  1  0
  5 12  2  0
  8 13  1  0
  9 14  1  0
 14 15  1  0
 13 16  1  0
 13 17  2  0
 14 18  1  0
 15 19  1  0
 18 20  1  0
 19 20  1  0
M  END
$$$$

     RDKit          3D

 20 22  0  0  0  0  0  0  0  0999 V2000
   17.0550   13.7902  -15.7944 C   0  0  0  0  0  0  0  0  0  0  0  0
   15.8599   13.4015  -16.0331 C   0  0  0  0  0  0  0  0  0  0  0  0
   15.1524   13.7648  -17.2038 C   0  0  0  0  0  0  0  0  0  0  0  0
   13.7852   13.3829  -17.4515 C   0  0  0  0  0  0  0  0  0  0  0  0
   13.2804   12.3145  -17.0143 O   0  0  0  0  0  0  0  0  0  0  0  0
   17.7070   14.7918  -16.5460 C   0  0  0  0  0  0  0  0  0  0  0  0
   12.9158   14.2466  -18.0725 N   0  0  0  0  0  0  0  0  0  0  0  0
   15.8649   14.6091  -18.0730 C   0  0  0  0  0  0  0  0  0  0  0  0
   11.7312   14.1461  -18.4769 C   0  0  0  0  0  0  0  0  0  0  0  0
   11.3791   13.2612  -19.4547 C   0  0  0  0  0  0  0  0  0  0  0  0
   12.3110   12.4162  -20.2071 C   0  0  0  0  0  0  0  0  0  0  0  0
   10.7389   15.2205  -18.1737 C   0  0  0  0  0  0  0  0  0  0  0  0
   11.0404   16.2538  -17.2316 C   0  0  0  0  0  0  0  0  0  0  0  0
    9.4533   14.7019  -18.4126 C   0  0  0  0  0  0  0  0  0  0  0  0
    9.9363   16.9224  -16.8075 C   0  0  0  0  0  0  0  0  0  0  0  0
    9.8876   13.0290  -19.8044 C   0  0  0  0  0  0  0  0  0  0  0  0
    8.6278   16.6926  -17.1424 C   0  0  0  0  0  0  0  0  0  0  0  0
    9.0088   13.8621  -19.2875 C   0  0  0  0  0  0  0  0  0  0  0  0
    8.2607   15.5409  -17.8514 C   0  0  0  0  0  0  0  0  0  0  0  0
   17.0931   15.0582  -17.8225 C   0  0  0  0  0  0  0  0  0  0  0  0
  1  2  1  0
  2  3  2  0
  3  4  1  0
  4  5  2  0
  1  6  2  0
  4  7  1  0
  3  8  1  0
  7  9  1  0
  9 10  2  0
 10 11  1  0
  9 12  1  0
 12 13  1  0
 12 14  2  0
 13 15  2  0
 10 16  1  0
 15 17  1  0
 14 18  1  0
 16 18  2  0
 14 19  1  0
 17 19  2  0
  6 20  1  0
  8 20  2  0
M  END
$$$$

     RDKit          3D

 20 22  0  0  0  0  0  0  0  0999 V2000
   16.9164   12.9958  -15.1088 C   0  0  0  0  0  0  0  0  0  0  0  0
   15.8006   12.6958  -15.6501 C   0  0  0  0  0  0  0  0  0  0  0  0
   14.7476   11.9962  -15.0575 F   0  0  0  0  0  0  0  0  0  0  0  0
   15.4503   13.0624  -17.0348 C   0  0  0  0  0  0  0  0  0  0  0  0
   14.1512   12.8538  -17.5695 C   0  0  0  0  0  0  0  0  0  0  0  0
   16.4463   13.6871  -17.7949 C   0  0  0  0  0  0  0  0  0  0  0  0
   14.0229   13.0870  -18.9051 C   0  0  0  0  0  0  0  0  0  0  0  0
   12.7797   13.5659  -19.3622 N   0  0  0  0  0  0  0  0  0  0  0  0
   12.5892   14.1908  -20.4406 C   0  0  0  0  0  0  0  0  0  0  0  0
   11.2299   14.6467  -20.7999 C   0  0  0  0  0  0  0  0  0  0  0  0
   13.5768   15.1171  -20.8418 O   0  0  0  0  0  0  0  0  0  0  0  0
   16.3044   14.1641  -19.0894 C   0  0  0  0  0  0  0  0  0  0  0  0
   17.7706   14.0174  -16.9634 C   0  0  0  0  0  0  0  0  0  0  0  0
   10.4624   15.3121  -19.8683 C   0  0  0  0  0  0  0  0  0  0  0  0
    9.8533   14.6576  -18.8416 C   0  0  0  0  0  0  0  0  0  0  0  0
   11.0721   16.6033  -19.3031 C   0  0  0  0  0  0  0  0  0  0  0  0
   10.9398   16.7142  -17.9577 C   0  0  0  0  0  0  0  0  0  0  0  0
   17.8719   13.7107  -15.7255 C   0  0  0  0  0  0  0  0  0  0  0  0
   14.8638   14.3622  -19.4094 C   0  0  0  0  0  0  0  0  0  0  0  0
   10.3524   15.1063  -17.5772 C   0  0  0  0  0  0  0  0  0  0  0  0
  1  2  2  0
  2  3  1  0
  2  4  1  0
  4  5  1  0
  4  6  2  0
  5  7  1  0
  7  8  1  0
  8  9  1  0
  9 10  1  0
  9 11  2  0
  6 12  1  0
  6 13  1  0
 10 14  1  0
 14 15  1  0
 14 16  1  0
 16 17  1  0
  1 18  1  0
 13 18  2  0
  7 19  1  0
 12 19  1  0
 15 20  1  0
 17 20  1  0
M  END
$$$$

     RDKit          3D

 20 21  0  0  0  0  0  0  0  0999 V2000
   17.0550   13.7902  -15.7944 C   0  0  0  0  0  0  0  0  0  0  0  0
   15.8599   13.4015  -16.0331 C   0  0  0  0  0  0  0  0  0  0  0  0
   15.1524   13.7648  -17.2038 C   0  0  0  0  0  0  0  0  0  0  0  0
   13.7852   13.3829  -17.4515 C   0  0  0  0  0  0  0  0  0  0  0  0
   13.2804   12.3145  -17.0143 O   0  0  0  0  0  0  0  0  0  0  0  0
   17.7070   14.7918  -16.5460 C   0  0  0  0  0  0  0  0  0  0  0  0
   12.9158   14.2466  -18.0725 N   0  0  0  0  0  0  0  0  0  0  0  0
   15.8649   14.6091  -18.0730 C   0  0  0  0  0  0  0  0  0  0  0  0
   11.7312   14.1461  -18.4769 C   0  0  0  0  0  0  0  0  0  0  0  0
   11.3791   13.2612  -19.4547 C   0  0  0  0  0  0  0  0  0  0  0  0
   12.3110   12.4162  -20.2071 C   0  0  0  0  0  0  0  0  0  0  0  0
   10.7389   15.2205  -18.1737 C   0  0  0  0  0  0  0  0  0  0  0  0
   11.0404   16.2538  -17.2316 C   0  0  0  0  0  0  0  0  0  0  0  0
   10.2183   16.4285  -16.2857 C   0  0  0  0  0  0  0  0  0  0  0  0
   17.0898   15.1220  -17.7701 C   0  0  0  0  0  0  0  0  0  0  0  0
    9.5402   15.1970  -18.8170 C   0  0  0  0  0  0  0  0  0  0  0  0
    8.7837   16.6763  -16.8319 C   0  0  0  0  0  0  0  0  0  0  0  0
    8.5885   16.0778  -18.1635 C   0  0  0  0  0  0  0  0  0  0  0  0
   11.8069   11.4364  -20.9875 O   0  0  0  0  0  0  0  0  0  0  0  0
   13.5879   12.6788  -20.2667 O   0  0  0  0  0  0  0  0  0  0  0  0
  1  2  1  0
  2  3  2  0
  3  4  1  0
  4  5  2  0
  1  6  2  0
  4  7  1  0
  3  8  1  0
  7  9  1  0
  9 10  2  3
 10 11  1  0
  9 12  1  0
 12 13  1  0
 13 14  1  0
  6 15  1  0
  8 15  2  0
 12 16  2  0
 14 17  1  0
 16 18  1  0
 17 18  2  0
 11 19  2  0
 11 20  1  0
M  END
$$$$

     RDKit          3D

 20 21  0  0  0  0  0  0  0  0999 V2000
   17.0550   13.7902  -15.7944 C   0  0  0  0  0  0  0  0  0  0  0  0
   15.8599   13.4015  -16.0331 C   0  0  0  0  0  0  0  0  0  0  0  0
   15.1524   13.7648  -17.2038 C   0  0  0  0  0  0  0  0  0  0  0  0
   13.7852   13.3829  -17.4515 C   0  0  0  0  0  0  0  0  0  0  0  0
   13.2804   12.3145  -17.0143 O   0  0  0  0  0  0  0  0  0  0  0  0
   17.7070   14.7918  -16.5460 C   0  0  0  0  0  0  0  0  0  0  0  0
   12.9158   14.2466  -18.0725 N   0  0  0  0  0  0  0  0  0  0  0  0
   15.8649   14.6091  -18.0730 C   0  0  0  0  0  0  0  0  0  0  0  0
   11.7312   14.1461  -18.4769 C   0  0  0  0  0  0  0  0  0  0  0  0
   11.3791   13.2612  -19.4547 C   0  0  0  0  0  0  0  0  0  0  0  0
   12.3110   12.4162  -20.2071 C   0  0  0  0  0  0  0  0  0  0  0  0
   10.7389   15.2205  -18.1737 C   0  0  0  0  0  0  0  0  0  0  0  0
   11.0404   16.2538  -17.2316 C   0  0  0  0  0  0  0  0  0  0  0  0
    9.9533   17.0478  -16.8739 C   0  0  0  0  0  0  0  0  0  0  0  0
   12.1881   11.1875  -20.1861 O   0  0  0  0  0  0  0  0  0  0  0  0
   17.0890   15.1307  -17.7677 C   0  0  0  0  0  0  0  0  0  0  0  0
    8.7137   16.6486  -17.4545 C   0  0  0  0  0  0  0  0  0  0  0  0
    9.4751   15.0084  -18.7286 C   0  0  0  0  0  0  0  0  0  0  0  0
   12.8736   13.0253  -21.2362 O   0  0  0  0  0  0  0  0  0  0  0  0
    8.4803   15.8720  -18.3147 C   0  0  0  0  0  0  0  0  0  0  0  0
  1  2  1  0
  2  3  2  0
  3  4  1  0
  4  5  2  0
  1  6  2  0
  4  7  1  0
  3  8  1  0
  7  9  1  0
  9 10  2  3
 10 11  1  0
  9 12  1  0
 12 13  1  0
 13 14  2  0
 11 15  1  0
  6 16  1  0
  8 16  2  0
 14 17  1  0
 12 18  2  0
 11 19  2  0
 17 20  2  0
 18 20  1  0
M  END
$$$$

     RDKit          3D

 20 22  0  0  0  0  0  0  0  0999 V2000
   16.9164   12.9958  -15.1088 C   0  0  0  0  0  0  0  0  0  0  0  0
   15.8006   12.6958  -15.6501 C   0  0  0  0  0  0  0  0  0  0  0  0
   14.7476   11.9962  -15.0575 F   0  0  0  0  0  0  0  0  0  0  0  0
   15.4503   13.0624  -17.0348 C   0  0  0  0  0  0  0  0  0  0  0  0
   14.1512   12.8538  -17.5695 C   0  0  0  0  0  0  0  0  0  0  0  0
   16.4463   13.6871  -17.7949 C   0  0  0  0  0  0  0  0  0  0  0  0
   14.0229   13.0870  -18.9051 C   0  0  0  0  0  0  0  0  0  0  0  0
   12.7797   13.5659  -19.3622 N   0  0  0  0  0  0  0  0  0  0  0  0
   12.5892   14.1908  -20.4406 C   0  0  0  0  0  0  0  0  0  0  0  0
   11.2299   14.6467  -20.7999 C   0  0  0  0  0  0  0  0  0  0  0  0
   13.5768   15.1171  -20.8418 O   0  0  0  0  0  0  0  0  0  0  0  0
   16.3044   14.1641  -19.0894 C   0  0  0  0  0  0  0  0  0  0  0  0
   17.7706   14.0174  -16.9634 C   0  0  0  0  0  0  0  0  0  0  0  0
   10.4624   15.3121  -19.8683 C   0  0  0  0  0  0  0  0  0  0  0  0
    9.8533   14.6576  -18.8416 C   0  0  0  0  0  0  0  0  0  0  0  0
   11.0721   16.6033  -19.3031 C   0  0  0  0  0  0  0  0  0  0  0  0
   10.9398   16.7142  -17.9577 C   0  0  0  0  0  0  0  0  0  0  0  0
   10.3818   15.1941  -17.5434 C   0  0  0  0  0  0  0  0  0  0  0  0
   17.8491   13.7597  -15.7012 C   0  0  0  0  0  0  0  0  0  0  0  0
   15.0007   14.0945  -19.5545 C   0  0  0  0  0  0  0  0  0  0  0  0
  1  2  2  0
  2  3  1  0
  2  4  1  0
  4  5  1  0
  4  6  2  0
  5  7  1  0
  7  8  1  0
  8  9  1  0
  9 10  1  0
  9 11  2  0
  6 12  1  0
  6 13  1  0
 10 14  1  0
 14 15  1  0
 14 16  1  0
 16 17  1  0
 15 18  1  0
 17 18  1  0
  1 19  1  0
 13 19  2  0
  7 20  1  0
 12 20  2  0
M  END
$$$$

     RDKit          3D

 20 22  0  0  0  0  0  0  0  0999 V2000
   16.9164   12.9958  -15.1088 C   0  0  0  0  0  0  0  0  0  0  0  0
   17.3100   14.0594  -15.5556 C   0  0  0  0  0  0  0  0  0  0  0  0
   15.7150   12.5123  -15.7129 C   0  0  0  0  0  0  0  0  0  0  0  0
   15.1202   13.0473  -16.8329 C   0  0  0  0  0  0  0  0  0  0  0  0
   13.9456   12.5358  -17.4163 C   0  0  0  0  0  0  0  0  0  0  0  0
   15.7427   14.2238  -17.3794 C   0  0  0  0  0  0  0  0  0  0  0  0
   15.1521   14.8467  -18.5270 C   0  0  0  0  0  0  0  0  0  0  0  0
   15.7155   15.8634  -19.0094 O   0  0  0  0  0  0  0  0  0  0  0  0
   14.1149   14.2168  -19.2331 C   0  0  0  0  0  0  0  0  0  0  0  0
   13.5361   14.7709  -20.3606 C   0  0  0  0  0  0  0  0  0  0  0  0
   13.4864   13.1082  -18.5956 C   0  0  0  0  0  0  0  0  0  0  0  0
   12.4414   15.5524  -20.2938 C   0  0  0  0  0  0  0  0  0  0  0  0
   11.8792   16.0689  -21.4091 C   0  0  0  0  0  0  0  0  0  0  0  0
   11.6810   15.8102  -19.0312 C   0  0  0  0  0  0  0  0  0  0  0  0
   18.5193   14.7378  -14.9610 F   0  0  0  0  0  0  0  0  0  0  0  0
   10.6685   16.4668  -19.0839 C   0  0  0  0  0  0  0  0  0  0  0  0
   10.1779   17.0316  -20.3828 C   0  0  0  0  0  0  0  0  0  0  0  0
   16.9485   14.8207  -16.6447 C   0  0  0  0  0  0  0  0  0  0  0  0
    8.9514   17.8680  -20.2548 O   0  0  0  0  0  0  0  0  0  0  0  0
   10.7376   16.8566  -21.4806 C   0  0  0  0  0  0  0  0  0  0  0  0
  1  2  1  0
  1  3  2  0
  3  4  1  0
  4  5  1  0
  4  6  2  0
  6  7  1  0
  7  8  2  0
  7  9  1  0
  9 10  1  0
  5 11  1  0
  9 11  2  0
 10 12  1  0
 12 13  2  0
 12 14  1  0
  2 15  1  0
 14 16  2  0
 16 17  1  0
  2 18  2  0
  6 18  1  0
 17 19  1  0
 13 20  1  0
 17 20  2  0
M  END
$$$$

     RDKit          3D

 20 22  0  0  0  0  0  0  0  0999 V2000
   16.9164   12.9958  -15.1088 C   0  0  0  0  0  0  0  0  0  0  0  0
   15.8006   12.6958  -15.6501 C   0  0  0  0  0  0  0  0  0  0  0  0
   14.7476   11.9962  -15.0575 F   0  0  0  0  0  0  0  0  0  0  0  0
   15.4503   13.0624  -17.0348 C   0  0  0  0  0  0  0  0  0  0  0  0
   14.1512   12.8538  -17.5695 C   0  0  0  0  0  0  0  0  0  0  0  0
   16.4463   13.6871  -17.7949 C   0  0  0  0  0  0  0  0  0  0  0  0
   14.0229   13.0870  -18.9051 C   0  0  0  0  0  0  0  0  0  0  0  0
   12.7797   13.5659  -19.3622 N   0  0  0  0  0  0  0  0  0  0  0  0
   12.5892   14.1908  -20.4406 C   0  0  0  0  0  0  0  0  0  0  0  0
   11.7705   13.9192  -18.3224 C   0  0  0  0  0  0  0  0  0  0  0  0
   11.3461   14.8385  -20.6144 N   0  0  0  0  0  0  0  0  0  0  0  0
   13.2924   13.8694  -21.6040 O   0  0  0  0  0  0  0  0  0  0  0  0
   10.8124   14.7078  -19.2480 C   0  0  0  0  0  0  0  0  0  0  0  0
   16.3519   14.1762  -19.0824 C   0  0  0  0  0  0  0  0  0  0  0  0
    9.6003   15.2821  -18.8054 C   0  0  0  0  0  0  0  0  0  0  0  0
    9.4395   15.5665  -17.4832 C   0  0  0  0  0  0  0  0  0  0  0  0
   17.8565   13.7554  -15.7572 C   0  0  0  0  0  0  0  0  0  0  0  0
   15.0945   13.6866  -19.7713 C   0  0  0  0  0  0  0  0  0  0  0  0
   17.6903   14.1459  -17.0766 C   0  0  0  0  0  0  0  0  0  0  0  0
    8.1875   16.1657  -17.0761 C   0  0  0  0  0  0  0  0  0  0  0  0
  1  2  2  0
  2  3  1  0
  2  4  1  0
  4  5  1  0
  4  6  2  0
  5  7  1  0
  7  8  1  0
  8  9  1  0
  8 10  1  0
  9 11  1  0
  9 12  2  0
 10 13  2  0
 11 13  1  0
  6 14  1  0
 13 15  1  0
 15 16  2  3
  1 17  1  0
  7 18  1  0
 14 18  2  0
  6 19  1  0
 17 19  2  0
 16 20  1  0
M  END
$$$$

     RDKit          3D

 20 21  0  0  0  0  0  0  0  0999 V2000
   17.0550   13.7902  -15.7944 C   0  0  0  0  0  0  0  0  0  0  0  0
   15.8599   13.4015  -16.0331 C   0  0  0  0  0  0  0  0  0  0  0  0
   15.1013   12.5227  -15.2103 F   0  0  0  0  0  0  0  0  0  0  0  0
   15.0924   14.0422  -17.0268 C   0  0  0  0  0  0  0  0  0  0  0  0
   17.7028   14.7340  -16.5681 C   0  0  0  0  0  0  0  0  0  0  0  0
   13.6815   13.6236  -17.3356 C   0  0  0  0  0  0  0  0  0  0  0  0
   15.7700   14.9619  -17.9285 C   0  0  0  0  0  0  0  0  0  0  0  0
   13.4873   12.7620  -18.2422 O   0  0  0  0  0  0  0  0  0  0  0  0
   12.7448   14.0481  -16.5631 N   0  0  0  0  0  0  0  0  0  0  0  0
   15.0337   15.5338  -19.0817 C   0  0  0  0  0  0  0  0  0  0  0  0
   17.1378   15.3033  -17.5742 C   0  0  0  0  0  0  0  0  0  0  0  0
   11.3429   14.0307  -16.8673 C   0  0  0  0  0  0  0  0  0  0  0  0
   10.5474   14.9445  -16.0329 C   0  0  0  0  0  0  0  0  0  0  0  0
   15.3595   15.1150  -20.2859 N   0  0  0  0  0  0  0  0  0  0  0  0
   14.4122   16.7243  -18.9749 C   0  0  0  0  0  0  0  0  0  0  0  0
    9.1845   14.9939  -16.1868 C   0  0  0  0  0  0  0  0  0  0  0  0
   13.8067   17.4775  -17.9773 C   0  0  0  0  0  0  0  0  0  0  0  0
   14.8807   15.5189  -21.4027 C   0  0  0  0  0  0  0  0  0  0  0  0
   13.9127   17.0015  -20.5087 C   0  0  0  0  0  0  0  0  0  0  0  0
   12.3561   17.4318  -17.8808 C   0  0  0  0  0  0  0  0  0  0  0  0
  1  2  1  0
  2  3  1  0
  2  4  2  0
  1  5  2  0
  4  6  1  0
  4  7  1  0
  6  8  2  0
  6  9  1  0
  7 10  1  0
  5 11  1  0
  7 11  2  0
  9 12  1  0
 12 13  1  0
 10 14  2  0
 10 15  1  0
 13 16  2  0
 15 17  1  0
 14 18  1  0
 15 19  2  0
 18 19  1  0
 17 20  1  0
M  END
$$$$

     RDKit          3D

 21 23  0  0  0  0  0  0  0  0999 V2000
   17.0550   13.7902  -15.7944 C   0  0  0  0  0  0  0  0  0  0  0  0
   15.8599   13.4015  -16.0331 C   0  0  0  0  0  0  0  0  0  0  0  0
   15.1524   13.7648  -17.2038 C   0  0  0  0  0  0  0  0  0  0  0  0
   13.7852   13.3829  -17.4515 C   0  0  0  0  0  0  0  0  0  0  0  0
   13.2804   12.3145  -17.0143 O   0  0  0  0  0  0  0  0  0  0  0  0
   12.9183   14.2494  -18.0791 N   0  0  0  0  0  0  0  0  0  0  0  0
   13.4282   15.4615  -18.7322 C   0  0  0  0  0  0  0  0  0  0  0  0
   13.6328   15.3786  -19.9673 C   0  0  0  0  0  0  0  0  0  0  0  0
   11.5217   14.1631  -17.8123 C   0  0  0  0  0  0  0  0  0  0  0  0
   14.0737   16.4766  -20.7295 C   0  0  0  0  0  0  0  0  0  0  0  0
   17.7275   14.7871  -16.5788 C   0  0  0  0  0  0  0  0  0  0  0  0
   10.6940   14.0522  -18.9051 C   0  0  0  0  0  0  0  0  0  0  0  0
   14.2134   17.7276  -20.1122 C   0  0  0  0  0  0  0  0  0  0  0  0
   13.8724   17.8020  -18.7476 C   0  0  0  0  0  0  0  0  0  0  0  0
   11.0117   14.4203  -16.5545 C   0  0  0  0  0  0  0  0  0  0  0  0
    9.2989   13.9948  -18.7753 C   0  0  0  0  0  0  0  0  0  0  0  0
    9.6623   14.6482  -16.4182 C   0  0  0  0  0  0  0  0  0  0  0  0
    8.7776   14.3568  -17.4877 C   0  0  0  0  0  0  0  0  0  0  0  0
   15.9324   14.6408  -18.0929 C   0  0  0  0  0  0  0  0  0  0  0  0
   17.1463   15.0446  -17.8021 C   0  0  0  0  0  0  0  0  0  0  0  0
   13.3633   16.7791  -18.0518 C   0  0  0  0  0  0  0  0  0  0  0  0
  1  2  1  0
  2  3  2  0
  3  4  1  0
  4  5  2  0
  4  6  1  0
  6  7  1  0
  7  8  1  0
  6  9  1  0
  8 10  2  0
  1 11  2  0
  9 12  2  0
 10 13  1  0
 13 14  2  0
  9 15  1  0
 12 16  1  0
 15 17  2  0
 16 18  2  0
 17 18  1  0
  3 19  1  0
 11 20  1  0
 19 20  2  0
  7 21  2  0
 14 21  1  0
M  END
$$$$

     RDKit          3D

 21 22  0  0  0  0  0  0  0  0999 V2000
   17.0550   13.7902  -15.7944 C   0  0  0  0  0  0  0  0  0  0  0  0
   15.8599   13.4015  -16.0331 C   0  0  0  0  0  0  0  0  0  0  0  0
   15.1524   13.7648  -17.2038 C   0  0  0  0  0  0  0  0  0  0  0  0
   13.7852   13.3829  -17.4515 C   0  0  0  0  0  0  0  0  0  0  0  0
   13.2804   12.3145  -17.0143 O   0  0  0  0  0  0  0  0  0  0  0  0
   17.7070   14.7918  -16.5460 C   0  0  0  0  0  0  0  0  0  0  0  0
   12.9158   14.2466  -18.0725 N   0  0  0  0  0  0  0  0  0  0  0  0
   15.8649   14.6091  -18.0730 C   0  0  0  0  0  0  0  0  0  0  0  0
   11.7312   14.1461  -18.4769 C   0  0  0  0  0  0  0  0  0  0  0  0
   11.3791   13.2612  -19.4547 C   0  0  0  0  0  0  0  0  0  0  0  0
   12.3110   12.4162  -20.2071 C   0  0  0  0  0  0  0  0  0  0  0  0
   10.7389   15.2205  -18.1737 C   0  0  0  0  0  0  0  0  0  0  0  0
   18.9670   15.2098  -16.2453 F   0  0  0  0  0  0  0  0  0  0  0  0
   11.7940   11.4177  -20.9426 O   0  0  0  0  0  0  0  0  0  0  0  0
    9.5466   15.1215  -18.5072 C   0  0  0  0  0  0  0  0  0  0  0  0
    9.0931   14.1717  -19.4770 C   0  0  0  0  0  0  0  0  0  0  0  0
    8.5478   16.0863  -17.8866 O   0  0  0  0  0  0  0  0  0  0  0  0
   13.5906   12.4706  -19.8489 O   0  0  0  0  0  0  0  0  0  0  0  0
   17.0625   15.2418  -17.7408 C   0  0  0  0  0  0  0  0  0  0  0  0
    9.9812   13.2952  -19.9973 C   0  0  0  0  0  0  0  0  0  0  0  0
    9.0922   16.7785  -16.8679 C   0  0  0  0  0  0  0  0  0  0  0  0
  1  2  1  0
  2  3  2  0
  3  4  1  0
  4  5  2  0
  1  6  2  0
  4  7  1  0
  3  8  1  0
  7  9  1  0
  9 10  2  0
 10 11  1  0
  9 12  1  0
  6 13  1  0
 11 14  2  0
 12 15  2  0
 15 16  1  0
 15 17  1  0
 11 18  1  0
  6 19  1  0
  8 19  2  0
 10 20  1  0
 16 20  2  0
 17 21  1  0
M  END
$$$$

     RDKit          3D

 21 23  0  0  0  0  0  0  0  0999 V2000
   17.0550   13.7902  -15.7944 C   0  0  0  0  0  0  0  0  0  0  0  0
   15.8599   13.4015  -16.0331 C   0  0  0  0  0  0  0  0  0  0  0  0
   15.1524   13.7648  -17.2038 C   0  0  0  0  0  0  0  0  0  0  0  0
   13.7852   13.3829  -17.4515 C   0  0  0  0  0  0  0  0  0  0  0  0
   13.2804   12.3145  -17.0143 O   0  0  0  0  0  0  0  0  0  0  0  0
   12.9183   14.2494  -18.0791 N   0  0  0  0  0  0  0  0  0  0  0  0
   13.4282   15.4615  -18.7322 C   0  0  0  0  0  0  0  0  0  0  0  0
   13.6328   15.3786  -19.9673 C   0  0  0  0  0  0  0  0  0  0  0  0
   11.5217   14.1631  -17.8123 C   0  0  0  0  0  0  0  0  0  0  0  0
   14.0737   16.4766  -20.7295 C   0  0  0  0  0  0  0  0  0  0  0  0
   17.7275   14.7871  -16.5788 C   0  0  0  0  0  0  0  0  0  0  0  0
   10.6940   14.0522  -18.9051 C   0  0  0  0  0  0  0  0  0  0  0  0
   14.2113   17.7330  -20.1083 C   0  0  0  0  0  0  0  0  0  0  0  0
   10.9957   14.5492  -16.5939 C   0  0  0  0  0  0  0  0  0  0  0  0
    9.3133   14.0282  -18.6486 C   0  0  0  0  0  0  0  0  0  0  0  0
   11.8420   14.9971  -15.4662 C   0  0  0  0  0  0  0  0  0  0  0  0
   13.9777   17.7577  -18.7307 C   0  0  0  0  0  0  0  0  0  0  0  0
    9.2236   14.5573  -17.0492 S   0  0  0  0  0  0  0  0  0  0  0  0
   15.8796   14.8769  -17.9614 C   0  0  0  0  0  0  0  0  0  0  0  0
   17.0986   15.2533  -17.6810 C   0  0  0  0  0  0  0  0  0  0  0  0
   13.4459   16.7497  -18.0218 C   0  0  0  0  0  0  0  0  0  0  0  0
  1  2  1  0
  2  3  2  0
  3  4  1  0
  4  5  2  0
  4  6  1  0
  6  7  1  0
  7  8  1  0
  6  9  1  0
  8 10  2  0
  1 11  2  0
  9 12  1  0
 10 13  1  0
  9 14  2  0
 12 15  2  0
 14 16  1  0
 13 17  2  0
 14 18  1  0
 15 18  1  0
  3 19  1  0
 11 20  1  0
 19 20  2  0
  7 21  2  0
 17 21  1  0
M  END
$$$$

     RDKit          3D

 21 23  0  0  0  0  0  0  0  0999 V2000
   16.9164   12.9958  -15.1088 C   0  0  0  0  0  0  0  0  0  0  0  0
   15.8006   12.6958  -15.6501 C   0  0  0  0  0  0  0  0  0  0  0  0
   15.3263   13.1990  -16.8841 C   0  0  0  0  0  0  0  0  0  0  0  0
   17.5837   14.1149  -15.7918 C   0  0  0  0  0  0  0  0  0  0  0  0
   16.9888   14.6497  -16.9217 C   0  0  0  0  0  0  0  0  0  0  0  0
   13.9767   12.6425  -17.4012 C   0  0  0  0  0  0  0  0  0  0  0  0
   13.5473   13.2128  -18.5272 C   0  0  0  0  0  0  0  0  0  0  0  0
   15.8659   14.2082  -17.5412 C   0  0  0  0  0  0  0  0  0  0  0  0
   12.2531   12.7100  -19.0883 O   0  0  0  0  0  0  0  0  0  0  0  0
   14.1618   14.3083  -19.2427 C   0  0  0  0  0  0  0  0  0  0  0  0
   13.5601   14.7983  -20.4049 O   0  0  0  0  0  0  0  0  0  0  0  0
   15.3092   14.8156  -18.7041 C   0  0  0  0  0  0  0  0  0  0  0  0
   11.0839   13.1576  -18.6468 C   0  0  0  0  0  0  0  0  0  0  0  0
   10.0121   12.5820  -19.3144 C   0  0  0  0  0  0  0  0  0  0  0  0
   12.9260   15.9713  -20.4375 C   0  0  0  0  0  0  0  0  0  0  0  0
   11.1266   14.6772  -18.5120 C   0  0  0  0  0  0  0  0  0  0  0  0
   10.8105   15.2750  -19.8007 C   0  0  0  0  0  0  0  0  0  0  0  0
    9.4652   16.0443  -19.5623 C   0  0  0  0  0  0  0  0  0  0  0  0
   11.6754   16.4028  -20.1870 C   0  0  0  0  0  0  0  0  0  0  0  0
    8.9637   16.1236  -18.3251 O   0  0  0  0  0  0  0  0  0  0  0  0
    7.7090   15.8019  -17.9448 C   0  0  0  0  0  0  0  0  0  0  0  0
  1  2  2  0
  2  3  1  0
  1  4  1  0
  4  5  2  0
  3  6  1  0
  6  7  2  0
  3  8  2  0
  5  8  1  0
  7  9  1  0
  7 10  1  0
 10 11  1  0
  8 12  1  0
 10 12  2  0
  9 13  1  0
 13 14  1  0
 11 15  1  0
 13 16  1  0
 16 17  1  0
 17 18  1  0
 15 19  1  0
 17 19  1  0
 18 20  1  0
 20 21  1  0
M  END
$$$$

     RDKit          3D

 21 23  0  0  0  0  0  0  0  0999 V2000
   17.0550   13.7902  -15.7944 C   0  0  0  0  0  0  0  0  0  0  0  0
   15.8599   13.4015  -16.0331 C   0  0  0  0  0  0  0  0  0  0  0  0
   15.1524   13.7648  -17.2038 C   0  0  0  0  0  0  0  0  0  0  0  0
   13.7852   13.3829  -17.4515 C   0  0  0  0  0  0  0  0  0  0  0  0
   13.2804   12.3145  -17.0143 O   0  0  0  0  0  0  0  0  0  0  0  0
   17.7070   14.7918  -16.5460 C   0  0  0  0  0  0  0  0  0  0  0  0
   12.9158   14.2466  -18.0725 N   0  0  0  0  0  0  0  0  0  0  0  0
   15.8649   14.6091  -18.0730 C   0  0  0  0  0  0  0  0  0  0  0  0
   11.7312   14.1461  -18.4769 C   0  0  0  0  0  0  0  0  0  0  0  0
   11.3791   13.2612  -19.4547 C   0  0  0  0  0  0  0  0  0  0  0  0
   12.3110   12.4162  -20.2071 C   0  0  0  0  0  0  0  0  0  0  0  0
   10.7389   15.2205  -18.1737 C   0  0  0  0  0  0  0  0  0  0  0  0
   11.0404   16.2538  -17.2316 C   0  0  0  0  0  0  0  0  0  0  0  0
    9.4533   14.7019  -18.4126 C   0  0  0  0  0  0  0  0  0  0  0  0
    9.9363   16.9224  -16.8075 C   0  0  0  0  0  0  0  0  0  0  0  0
    9.1586   13.4383  -18.7956 C   0  0  0  0  0  0  0  0  0  0  0  0
    7.7757   13.2708  -19.1918 C   0  0  0  0  0  0  0  0  0  0  0  0
   10.2090   13.0369  -19.7792 N   0  0  0  0  0  0  0  0  0  0  0  0
    8.5911   16.3677  -17.1779 C   0  0  0  0  0  0  0  0  0  0  0  0
    8.3424   15.5678  -18.0011 C   0  0  0  0  0  0  0  0  0  0  0  0
   17.0892   15.0483  -17.8200 C   0  0  0  0  0  0  0  0  0  0  0  0
  1  2  1  0
  2  3  2  0
  3  4  1  0
  4  5  2  0
  1  6  2  0
  4  7  1  0
  3  8  1  0
  7  9  1  0
  9 10  2  0
 10 11  1  0
  9 12  1  0
 12 13  1  0
 12 14  2  0
 13 15  2  0
 14 16  1  0
 16 17  1  0
 10 18  1  0
 16 18  2  0
 15 19  1  0
 14 20  1  0
 19 20  2  0
  6 21  1  0
  8 21  2  0
M  END
$$$$

     RDKit          3D

 21 23  0  0  0  0  0  0  0  0999 V2000
   16.9164   12.9958  -15.1088 C   0  0  0  0  0  0  0  0  0  0  0  0
   15.8006   12.6958  -15.6501 C   0  0  0  0  0  0  0  0  0  0  0  0
   14.7476   11.9962  -15.0575 F   0  0  0  0  0  0  0  0  0  0  0  0
   15.4503   13.0624  -17.0348 C   0  0  0  0  0  0  0  0  0  0  0  0
   14.1512   12.8538  -17.5695 C   0  0  0  0  0  0  0  0  0  0  0  0
   16.4463   13.6871  -17.7949 C   0  0  0  0  0  0  0  0  0  0  0  0
   14.0229   13.0870  -18.9051 C   0  0  0  0  0  0  0  0  0  0  0  0
   12.7797   13.5659  -19.3622 N   0  0  0  0  0  0  0  0  0  0  0  0
   12.5892   14.1908  -20.4406 C   0  0  0  0  0  0  0  0  0  0  0  0
   11.2299   14.6467  -20.7999 C   0  0  0  0  0  0  0  0  0  0  0  0
   13.5768   15.1171  -20.8418 O   0  0  0  0  0  0  0  0  0  0  0  0
   16.3044   14.1641  -19.0894 C   0  0  0  0  0  0  0  0  0  0  0  0
   17.7706   14.0174  -16.9634 C   0  0  0  0  0  0  0  0  0  0  0  0
   10.4624   15.3121  -19.8683 C   0  0  0  0  0  0  0  0  0  0  0  0
   18.6536   14.8967  -17.7404 F   0  0  0  0  0  0  0  0  0  0  0  0
   10.5771   16.4904  -19.4651 C   0  0  0  0  0  0  0  0  0  0  0  0
    9.8803   14.4278  -18.7562 C   0  0  0  0  0  0  0  0  0  0  0  0
    9.3097   15.3280  -17.7952 C   0  0  0  0  0  0  0  0  0  0  0  0
    9.8038   16.7114  -18.1888 C   0  0  0  0  0  0  0  0  0  0  0  0
   14.9883   14.0702  -19.5945 C   0  0  0  0  0  0  0  0  0  0  0  0
   17.9382   13.5994  -15.8459 C   0  0  0  0  0  0  0  0  0  0  0  0
  1  2  2  0
  2  3  1  0
  2  4  1  0
  4  5  1  0
  4  6  2  0
  5  7  1  0
  7  8  1  0
  8  9  1  0
  9 10  1  0
  9 11  2  0
  6 12  1  0
  6 13  1  0
 10 14  1  0
 13 15  1  0
 14 16  1  0
 14 17  2  0
 17 18  1  0
 16 19  1  0
 18 19  2  0
  7 20  1  0
 12 20  2  0
  1 21  1  0
 13 21  2  0
M  END
$$$$

     RDKit          3D

 21 24  0  0  0  0  0  0  0  0999 V2000
   17.0550   13.7902  -15.7944 C   0  0  0  0  0  0  0  0  0  0  0  0
   15.8599   13.4015  -16.0331 C   0  0  0  0  0  0  0  0  0  0  0  0
   15.1524   13.7648  -17.2038 C   0  0  0  0  0  0  0  0  0  0  0  0
   13.7852   13.3829  -17.4515 C   0  0  0  0  0  0  0  0  0  0  0  0
   13.2804   12.3145  -17.0143 O   0  0  0  0  0  0  0  0  0  0  0  0
   17.7070   14.7918  -16.5460 C   0  0  0  0  0  0  0  0  0  0  0  0
   12.9158   14.2466  -18.0725 N   0  0  0  0  0  0  0  0  0  0  0  0
   13.3795   15.5212  -18.6096 C   0  0  0  0  0  0  0  0  0  0  0  0
   11.6040   13.7754  -18.4334 C   0  0  0  0  0  0  0  0  0  0  0  0
   11.4503   13.0501  -19.5984 C   0  0  0  0  0  0  0  0  0  0  0  0
   10.5468   14.4606  -17.8440 C   0  0  0  0  0  0  0  0  0  0  0  0
   15.8726   14.6697  -18.0727 C   0  0  0  0  0  0  0  0  0  0  0  0
   10.1870   12.7221  -19.9783 C   0  0  0  0  0  0  0  0  0  0  0  0
    9.2181   14.1405  -18.2599 C   0  0  0  0  0  0  0  0  0  0  0  0
   10.5934   15.4809  -16.7418 C   0  0  0  0  0  0  0  0  0  0  0  0
    8.1347   14.7519  -17.5787 C   0  0  0  0  0  0  0  0  0  0  0  0
    9.5519   15.9999  -16.1730 C   0  0  0  0  0  0  0  0  0  0  0  0
   14.7182   15.7541  -18.7081 C   0  0  0  0  0  0  0  0  0  0  0  0
    8.2571   15.6338  -16.5861 C   0  0  0  0  0  0  0  0  0  0  0  0
   17.0317   15.3546  -17.6398 C   0  0  0  0  0  0  0  0  0  0  0  0
    9.0327   13.2645  -19.3313 C   0  0  0  0  0  0  0  0  0  0  0  0
  1  2  1  0
  2  3  2  0
  3  4  1  0
  4  5  2  0
  1  6  2  0
  4  7  1  0
  7  8  1  0
  7  9  1  0
  9 10  1  0
  9 11  2  0
  3 12  1  0
 10 13  2  0
 11 14  1  0
 11 15  1  0
 14 16  1  0
 15 17  2  0
  8 18  1  0
 12 18  1  0
 16 19  2  0
 17 19  1  0
  6 20  1  0
 12 20  2  0
 13 21  1  0
 14 21  2  0
M  END
$$$$

     RDKit          3D

 21 23  0  0  0  0  0  0  0  0999 V2000
   16.9164   12.9958  -15.1088 C   0  0  0  0  0  0  0  0  0  0  0  0
   15.8006   12.6958  -15.6501 C   0  0  0  0  0  0  0  0  0  0  0  0
   14.7476   11.9962  -15.0575 F   0  0  0  0  0  0  0  0  0  0  0  0
   15.4503   13.0624  -17.0348 C   0  0  0  0  0  0  0  0  0  0  0  0
   14.1512   12.8538  -17.5695 C   0  0  0  0  0  0  0  0  0  0  0  0
   16.4463   13.6871  -17.7949 C   0  0  0  0  0  0  0  0  0  0  0  0
   14.0229   13.0870  -18.9051 C   0  0  0  0  0  0  0  0  0  0  0  0
   12.7797   13.5659  -19.3622 N   0  0  0  0  0  0  0  0  0  0  0  0
   12.5892   14.1908  -20.4406 C   0  0  0  0  0  0  0  0  0  0  0  0
   11.7705   13.9192  -18.3224 C   0  0  0  0  0  0  0  0  0  0  0  0
   11.3461   14.8385  -20.6144 N   0  0  0  0  0  0  0  0  0  0  0  0
   13.2924   13.8694  -21.6040 O   0  0  0  0  0  0  0  0  0  0  0  0
   10.8124   14.7078  -19.2480 C   0  0  0  0  0  0  0  0  0  0  0  0
   16.3519   14.1762  -19.0824 C   0  0  0  0  0  0  0  0  0  0  0  0
    9.6847   15.2986  -18.6614 C   0  0  0  0  0  0  0  0  0  0  0  0
    9.5530   15.5997  -17.3842 C   0  0  0  0  0  0  0  0  0  0  0  0
   17.7684   13.8699  -15.8796 C   0  0  0  0  0  0  0  0  0  0  0  0
   17.6383   14.1878  -17.1070 C   0  0  0  0  0  0  0  0  0  0  0  0
   14.8313   14.2478  -19.5711 N   0  0  0  0  0  0  0  0  0  0  0  0
    8.4717   15.2480  -16.7943 C   0  0  0  0  0  0  0  0  0  0  0  0
    8.2715   15.3027  -15.4042 C   0  0  0  0  0  0  0  0  0  0  0  0
  1  2  2  0
  2  3  1  0
  2  4  1  0
  4  5  1  0
  4  6  2  0
  5  7  1  0
  7  8  1  0
  8  9  1  0
  8 10  1  0
  9 11  1  0
  9 12  2  0
 10 13  2  0
 11 13  1  0
  6 14  1  0
 13 15  1  0
 15 16  1  0
  1 17  1  0
  6 18  1  0
 17 18  2  0
  7 19  1  0
 14 19  1  0
 16 20  2  3
 20 21  1  0
M  END
$$$$

     RDKit          3D

 21 23  0  0  0  0  0  0  0  0999 V2000
   16.9164   12.9958  -15.1088 C   0  0  0  0  0  0  0  0  0  0  0  0
   15.8006   12.6958  -15.6501 C   0  0  0  0  0  0  0  0  0  0  0  0
   15.3466   13.2197  -16.8853 C   0  0  0  0  0  0  0  0  0  0  0  0
   17.5403   14.1336  -15.6884 C   0  0  0  0  0  0  0  0  0  0  0  0
   14.0582   12.7399  -17.5012 C   0  0  0  0  0  0  0  0  0  0  0  0
   13.6318   13.4418  -18.5654 N   0  0  0  0  0  0  0  0  0  0  0  0
   14.4454   14.3586  -19.1541 C   0  0  0  0  0  0  0  0  0  0  0  0
   13.9285   14.9785  -20.3903 C   0  0  0  0  0  0  0  0  0  0  0  0
   15.9730   14.2741  -17.4814 C   0  0  0  0  0  0  0  0  0  0  0  0
   13.0204   15.8739  -20.2843 N   0  0  0  0  0  0  0  0  0  0  0  0
   17.1341   14.8018  -16.8061 C   0  0  0  0  0  0  0  0  0  0  0  0
   12.6895   16.4680  -19.2277 C   0  0  0  0  0  0  0  0  0  0  0  0
   11.4174   16.1357  -18.6258 C   0  0  0  0  0  0  0  0  0  0  0  0
   12.8974   17.9257  -19.1187 C   0  0  0  0  0  0  0  0  0  0  0  0
   15.6211   14.8330  -18.7088 C   0  0  0  0  0  0  0  0  0  0  0  0
   11.1150   17.2289  -17.6634 C   0  0  0  0  0  0  0  0  0  0  0  0
   14.4650   14.7530  -21.6361 O   0  0  0  0  0  0  0  0  0  0  0  0
   13.9239   18.7438  -19.7016 C   0  0  0  0  0  0  0  0  0  0  0  0
   13.6634   19.8724  -20.0308 O   0  0  0  0  0  0  0  0  0  0  0  0
   12.2341   18.6114  -18.0462 C   0  0  0  0  0  0  0  0  0  0  0  0
   15.1618   18.2023  -19.7704 N   0  0  0  0  0  0  0  0  0  0  0  0
  1  2  1  0
  2  3  2  0
  1  4  2  0
  3  5  1  0
  5  6  2  0
  6  7  1  0
  7  8  1  0
  3  9  1  0
  8 10  1  0
  4 11  1  0
  9 11  2  0
 10 12  1  0
 12 13  1  0
 12 14  2  0
  7 15  2  0
  9 15  1  0
 13 16  2  0
  8 17  2  0
 14 18  1  0
 18 19  2  0
 14 20  1  0
 16 20  1  0
 18 21  1  0
M  END
$$$$

     RDKit          3D

 21 22  0  0  0  0  0  0  0  0999 V2000
   17.0550   13.7902  -15.7944 C   0  0  0  0  0  0  0  0  0  0  0  0
   15.8599   13.4015  -16.0331 C   0  0  0  0  0  0  0  0  0  0  0  0
   15.1524   13.7648  -17.2038 C   0  0  0  0  0  0  0  0  0  0  0  0
   13.7852   13.3829  -17.4515 C   0  0  0  0  0  0  0  0  0  0  0  0
   13.2804   12.3145  -17.0143 O   0  0  0  0  0  0  0  0  0  0  0  0
   17.7070   14.7918  -16.5460 C   0  0  0  0  0  0  0  0  0  0  0  0
   12.9158   14.2466  -18.0725 N   0  0  0  0  0  0  0  0  0  0  0  0
   15.8649   14.6091  -18.0730 C   0  0  0  0  0  0  0  0  0  0  0  0
   11.7312   14.1461  -18.4769 C   0  0  0  0  0  0  0  0  0  0  0  0
   11.3791   13.2612  -19.4547 C   0  0  0  0  0  0  0  0  0  0  0  0
   12.3110   12.4162  -20.2071 C   0  0  0  0  0  0  0  0  0  0  0  0
   10.7389   15.2205  -18.1737 C   0  0  0  0  0  0  0  0  0  0  0  0
   11.0404   16.2538  -17.2316 C   0  0  0  0  0  0  0  0  0  0  0  0
    9.4533   14.7019  -18.4126 C   0  0  0  0  0  0  0  0  0  0  0  0
   17.0904   15.1016  -17.7790 C   0  0  0  0  0  0  0  0  0  0  0  0
   13.1854   13.0082  -20.9799 O   0  0  0  0  0  0  0  0  0  0  0  0
   12.1783   11.2187  -20.2746 O   0  0  0  0  0  0  0  0  0  0  0  0
    9.8189   13.0639  -19.8346 C   0  0  0  0  0  0  0  0  0  0  0  0
   12.0090   17.0164  -17.5163 O   0  0  0  0  0  0  0  0  0  0  0  0
    9.0552   13.8901  -19.2478 C   0  0  0  0  0  0  0  0  0  0  0  0
   10.4340   16.3689  -16.0796 O   0  0  0  0  0  0  0  0  0  0  0  0
  1  2  1  0
  2  3  2  0
  3  4  1  0
  4  5  2  0
  1  6  2  0
  4  7  1  0
  3  8  1  0
  7  9  1  0
  9 10  2  0
 10 11  1  0
  9 12  1  0
 12 13  1  0
 12 14  2  0
  6 15  1  0
  8 15  2  0
 11 16  1  0
 11 17  2  0
 10 18  1  0
 13 19  2  0
 14 20  1  0
 18 20  2  0
 13 21  1  0
M  END
$$$$

     RDKit          3D

 22 24  0  0  0  0  0  0  0  0999 V2000
   17.0550   13.7902  -15.7944 C   0  0  0  0  0  0  0  0  0  0  0  0
   15.8599   13.4015  -16.0331 C   0  0  0  0  0  0  0  0  0  0  0  0
   15.1524   13.7648  -17.2038 C   0  0  0  0  0  0  0  0  0  0  0  0
   13.7852   13.3829  -17.4515 C   0  0  0  0  0  0  0  0  0  0  0  0
   13.2804   12.3145  -17.0143 O   0  0  0  0  0  0  0  0  0  0  0  0
   12.9183   14.2494  -18.0791 N   0  0  0  0  0  0  0  0  0  0  0  0
   13.4282   15.4615  -18.7322 C   0  0  0  0  0  0  0  0  0  0  0  0
   13.6328   15.3786  -19.9673 C   0  0  0  0  0  0  0  0  0  0  0  0
   11.5217   14.1631  -17.8123 C   0  0  0  0  0  0  0  0  0  0  0  0
   14.0737   16.4766  -20.7295 C   0  0  0  0  0  0  0  0  0  0  0  0
   17.7275   14.7871  -16.5788 C   0  0  0  0  0  0  0  0  0  0  0  0
   10.6940   14.0522  -18.9051 C   0  0  0  0  0  0  0  0  0  0  0  0
   14.2134   17.7276  -20.1122 C   0  0  0  0  0  0  0  0  0  0  0  0
   16.9982   15.2193  -17.7138 C   0  0  0  0  0  0  0  0  0  0  0  0
    9.2731   13.9459  -18.8079 C   0  0  0  0  0  0  0  0  0  0  0  0
   10.9185   14.3368  -16.5694 C   0  0  0  0  0  0  0  0  0  0  0  0
   17.6924   16.2096  -18.6106 N   0  0  0  0  0  0  0  0  0  0  0  0
   15.7444   14.7589  -18.0286 C   0  0  0  0  0  0  0  0  0  0  0  0
    9.5324   14.4766  -16.4515 C   0  0  0  0  0  0  0  0  0  0  0  0
    8.7280   14.2455  -17.5428 C   0  0  0  0  0  0  0  0  0  0  0  0
   13.7222   16.6938  -17.9627 C   0  0  0  0  0  0  0  0  0  0  0  0
   13.9320   17.8168  -18.7305 C   0  0  0  0  0  0  0  0  0  0  0  0
  1  2  1  0
  2  3  2  0
  3  4  1  0
  4  5  2  0
  4  6  1  0
  6  7  1  0
  7  8  1  0
  6  9  1  0
  8 10  2  0
  1 11  2  0
  9 12  2  0
 10 13  1  0
 11 14  1  0
 12 15  1  0
  9 16  1  0
 14 17  1  0
  3 18  1  0
 14 18  2  0
 16 19  2  0
 15 20  2  0
 19 20  1  0
  7 21  2  0
 13 22  2  0
 21 22  1  0
M  END
$$$$

     RDKit          3D

 22 24  0  0  0  0  0  0  0  0999 V2000
   16.9164   12.9958  -15.1088 C   0  0  0  0  0  0  0  0  0  0  0  0
   15.8006   12.6958  -15.6501 C   0  0  0  0  0  0  0  0  0  0  0  0
   14.7476   11.9962  -15.0575 F   0  0  0  0  0  0  0  0  0  0  0  0
   17.2314   12.5241  -13.8056 O   0  0  0  0  0  0  0  0  0  0  0  0
   15.3023   13.4231  -16.8588 C   0  0  0  0  0  0  0  0  0  0  0  0
   14.0394   13.1585  -17.4243 C   0  0  0  0  0  0  0  0  0  0  0  0
   13.0019   13.9615  -17.1809 N   0  0  0  0  0  0  0  0  0  0  0  0
   12.3528   14.7188  -18.1206 C   0  0  0  0  0  0  0  0  0  0  0  0
   16.1948   14.4280  -17.2690 C   0  0  0  0  0  0  0  0  0  0  0  0
   15.9271   15.0737  -18.6286 C   0  0  0  0  0  0  0  0  0  0  0  0
   17.4856   14.6730  -16.7416 C   0  0  0  0  0  0  0  0  0  0  0  0
   16.7046   16.0617  -18.9530 C   0  0  0  0  0  0  0  0  0  0  0  0
   12.6396   14.6318  -19.3695 O   0  0  0  0  0  0  0  0  0  0  0  0
   11.4892   15.7979  -17.7149 C   0  0  0  0  0  0  0  0  0  0  0  0
   10.2024   15.4277  -17.5327 C   0  0  0  0  0  0  0  0  0  0  0  0
   17.9783   16.3782  -18.4069 C   0  0  0  0  0  0  0  0  0  0  0  0
   18.6845   17.3943  -18.9357 O   0  0  0  0  0  0  0  0  0  0  0  0
   18.2469   15.8154  -17.1985 C   0  0  0  0  0  0  0  0  0  0  0  0
   17.7563   14.1348  -15.4728 C   0  0  0  0  0  0  0  0  0  0  0  0
   11.7575   17.1629  -17.8033 C   0  0  0  0  0  0  0  0  0  0  0  0
    9.5495   16.7502  -17.1840 C   0  0  0  0  0  0  0  0  0  0  0  0
   10.5603   17.7366  -17.3622 N   0  0  0  0  0  0  0  0  0  0  0  0
  1  2  2  0
  2  3  1  0
  1  4  1  0
  2  5  1  0
  5  6  1  0
  6  7  1  0
  7  8  1  0
  5  9  2  0
  9 10  1  0
  9 11  1  0
 10 12  2  0
  8 13  2  0
  8 14  1  0
 14 15  2  0
 12 16  1  0
 16 17  1  0
 11 18  1  0
 16 18  2  0
  1 19  1  0
 11 19  2  0
 14 20  1  0
 15 21  1  0
 20 22  1  0
 21 22  1  0
M  END
$$$$

     RDKit          3D

 22 24  0  0  0  0  0  0  0  0999 V2000
   16.9164   12.9958  -15.1088 C   0  0  0  0  0  0  0  0  0  0  0  0
   15.8006   12.6958  -15.6501 C   0  0  0  0  0  0  0  0  0  0  0  0
   14.7476   11.9962  -15.0575 F   0  0  0  0  0  0  0  0  0  0  0  0
   17.2314   12.5241  -13.8056 O   0  0  0  0  0  0  0  0  0  0  0  0
   15.3023   13.4231  -16.8588 C   0  0  0  0  0  0  0  0  0  0  0  0
   14.0394   13.1585  -17.4243 C   0  0  0  0  0  0  0  0  0  0  0  0
   13.0019   13.9615  -17.1809 N   0  0  0  0  0  0  0  0  0  0  0  0
   12.3528   14.7188  -18.1206 C   0  0  0  0  0  0  0  0  0  0  0  0
   16.1948   14.4280  -17.2690 C   0  0  0  0  0  0  0  0  0  0  0  0
   15.9271   15.0737  -18.6286 C   0  0  0  0  0  0  0  0  0  0  0  0
   17.4856   14.6730  -16.7416 C   0  0  0  0  0  0  0  0  0  0  0  0
   16.7046   16.0617  -18.9530 C   0  0  0  0  0  0  0  0  0  0  0  0
   12.6396   14.6318  -19.3695 O   0  0  0  0  0  0  0  0  0  0  0  0
   11.4892   15.7979  -17.7149 C   0  0  0  0  0  0  0  0  0  0  0  0
   10.2024   15.4277  -17.5327 C   0  0  0  0  0  0  0  0  0  0  0  0
   17.9783   16.3782  -18.4069 C   0  0  0  0  0  0  0  0  0  0  0  0
   18.6845   17.3943  -18.9357 O   0  0  0  0  0  0  0  0  0  0  0  0
   18.2469   15.8154  -17.1985 C   0  0  0  0  0  0  0  0  0  0  0  0
   17.7563   14.1348  -15.4728 C   0  0  0  0  0  0  0  0  0  0  0  0
   11.7575   17.1629  -17.8033 C   0  0  0  0  0  0  0  0  0  0  0  0
    9.5495   16.7502  -17.1840 C   0  0  0  0  0  0  0  0  0  0  0  0
   10.5603   17.7366  -17.3622 N   0  0  0  0  0  0  0  0  0  0  0  0
  1  2  2  0
  2  3  1  0
  1  4  1  0
  2  5  1  0
  5  6  1  0
  6  7  1  0
  7  8  1  0
  5  9  2  0
  9 10  1  0
  9 11  1  0
 10 12  2  0
  8 13  2  0
  8 14  1  0
 14 15  2  0
 12 16  1  0
 16 17  1  0
 11 18  1  0
 16 18  2  0
  1 19  1  0
 11 19  2  0
 14 20  1  0
 15 21  1  0
 20 22  2  0
 21 22  1  0
M  END
$$$$

     RDKit          3D

 22 24  0  0  0  0  0  0  0  0999 V2000
   17.0550   13.7902  -15.7944 C   0  0  0  0  0  0  0  0  0  0  0  0
   15.8599   13.4015  -16.0331 C   0  0  0  0  0  0  0  0  0  0  0  0
   15.1524   13.7648  -17.2038 C   0  0  0  0  0  0  0  0  0  0  0  0
   13.7852   13.3829  -17.4515 C   0  0  0  0  0  0  0  0  0  0  0  0
   13.2804   12.3145  -17.0143 O   0  0  0  0  0  0  0  0  0  0  0  0
   12.9183   14.2494  -18.0791 N   0  0  0  0  0  0  0  0  0  0  0  0
   13.4282   15.4615  -18.7322 C   0  0  0  0  0  0  0  0  0  0  0  0
   13.6328   15.3786  -19.9673 C   0  0  0  0  0  0  0  0  0  0  0  0
   11.5217   14.1631  -17.8123 C   0  0  0  0  0  0  0  0  0  0  0  0
   14.0737   16.4766  -20.7295 C   0  0  0  0  0  0  0  0  0  0  0  0
   17.7275   14.7871  -16.5788 C   0  0  0  0  0  0  0  0  0  0  0  0
   10.6940   14.0522  -18.9051 C   0  0  0  0  0  0  0  0  0  0  0  0
   14.2134   17.7276  -20.1122 C   0  0  0  0  0  0  0  0  0  0  0  0
   13.8724   17.8020  -18.7476 C   0  0  0  0  0  0  0  0  0  0  0  0
   15.7458   14.7833  -18.0286 C   0  0  0  0  0  0  0  0  0  0  0  0
   13.4508   16.6909  -18.0509 C   0  0  0  0  0  0  0  0  0  0  0  0
   17.0732   15.2073  -17.7211 C   0  0  0  0  0  0  0  0  0  0  0  0
   11.0332   13.8945  -20.2907 O   0  0  0  0  0  0  0  0  0  0  0  0
    9.2915   13.7543  -18.6792 C   0  0  0  0  0  0  0  0  0  0  0  0
    8.7075   14.1263  -17.4834 C   0  0  0  0  0  0  0  0  0  0  0  0
    9.5676   14.4678  -16.4075 C   0  0  0  0  0  0  0  0  0  0  0  0
   10.9469   14.5433  -16.6019 C   0  0  0  0  0  0  0  0  0  0  0  0
  1  2  1  0
  2  3  2  0
  3  4  1  0
  4  5  2  0
  4  6  1  0
  6  7  1  0
  7  8  1  0
  6  9  1  0
  8 10  2  0
  1 11  2  0
  9 12  2  0
 10 13  1  0
 13 14  2  0
  3 15  1  0
  7 16  2  0
 14 16  1  0
 11 17  1  0
 15 17  2  0
 12 18  1  0
 12 19  1  0
 19 20  2  0
 20 21  1  0
  9 22  1  0
 21 22  2  0
M  END
$$$$

     RDKit          3D

 22 24  0  0  0  0  0  0  0  0999 V2000
   17.0550   13.7902  -15.7944 C   0  0  0  0  0  0  0  0  0  0  0  0
   15.8599   13.4015  -16.0331 C   0  0  0  0  0  0  0  0  0  0  0  0
   15.1524   13.7648  -17.2038 C   0  0  0  0  0  0  0  0  0  0  0  0
   13.7852   13.3829  -17.4515 C   0  0  0  0  0  0  0  0  0  0  0  0
   13.2804   12.3145  -17.0143 O   0  0  0  0  0  0  0  0  0  0  0  0
   12.9183   14.2494  -18.0791 N   0  0  0  0  0  0  0  0  0  0  0  0
   13.4282   15.4615  -18.7322 C   0  0  0  0  0  0  0  0  0  0  0  0
   13.6328   15.3786  -19.9673 C   0  0  0  0  0  0  0  0  0  0  0  0
   11.5217   14.1631  -17.8123 C   0  0  0  0  0  0  0  0  0  0  0  0
   14.0737   16.4766  -20.7295 C   0  0  0  0  0  0  0  0  0  0  0  0
   17.7275   14.7871  -16.5788 C   0  0  0  0  0  0  0  0  0  0  0  0
   10.6940   14.0522  -18.9051 C   0  0  0  0  0  0  0  0  0  0  0  0
   14.2134   17.7276  -20.1122 C   0  0  0  0  0  0  0  0  0  0  0  0
   16.9982   15.2193  -17.7138 C   0  0  0  0  0  0  0  0  0  0  0  0
    9.2731   13.9459  -18.8079 C   0  0  0  0  0  0  0  0  0  0  0  0
   10.9185   14.3368  -16.5694 C   0  0  0  0  0  0  0  0  0  0  0  0
   11.7166   14.7392  -15.4248 C   0  0  0  0  0  0  0  0  0  0  0  0
   15.7382   14.7640  -18.0366 C   0  0  0  0  0  0  0  0  0  0  0  0
   13.8521   17.8132  -18.7762 C   0  0  0  0  0  0  0  0  0  0  0  0
    9.4927   14.5247  -16.4738 C   0  0  0  0  0  0  0  0  0  0  0  0
   13.4134   16.7108  -18.0789 C   0  0  0  0  0  0  0  0  0  0  0  0
    8.7031   14.2257  -17.5834 C   0  0  0  0  0  0  0  0  0  0  0  0
  1  2  1  0
  2  3  2  0
  3  4  1  0
  4  5  2  0
  4  6  1  0
  6  7  1  0
  7  8  1  0
  6  9  1  0
  8 10  2  0
  1 11  2  0
  9 12  2  0
 10 13  1  0
 11 14  1  0
 12 15  1  0
  9 16  1  0
 16 17  1  0
  3 18  1  0
 14 18  2  0
 13 19  2  0
 16 20  2  0
  7 21  2  0
 19 21  1  0
 15 22  2  0
 20 22  1  0
M  END
$$$$

     RDKit          3D

 22 24  0  0  0  0  0  0  0  0999 V2000
   17.0550   13.7902  -15.7944 C   0  0  0  0  0  0  0  0  0  0  0  0
   15.8599   13.4015  -16.0331 C   0  0  0  0  0  0  0  0  0  0  0  0
   15.1524   13.7648  -17.2038 C   0  0  0  0  0  0  0  0  0  0  0  0
   13.7852   13.3829  -17.4515 C   0  0  0  0  0  0  0  0  0  0  0  0
   13.2804   12.3145  -17.0143 O   0  0  0  0  0  0  0  0  0  0  0  0
   17.7070   14.7918  -16.5460 C   0  0  0  0  0  0  0  0  0  0  0  0
   12.9158   14.2466  -18.0725 N   0  0  0  0  0  0  0  0  0  0  0  0
   15.8649   14.6091  -18.0730 C   0  0  0  0  0  0  0  0  0  0  0  0
   11.7312   14.1461  -18.4769 C   0  0  0  0  0  0  0  0  0  0  0  0
   11.3791   13.2612  -19.4547 C   0  0  0  0  0  0  0  0  0  0  0  0
   12.3110   12.4162  -20.2071 C   0  0  0  0  0  0  0  0  0  0  0  0
   10.7389   15.2205  -18.1737 C   0  0  0  0  0  0  0  0  0  0  0  0
   11.0404   16.2538  -17.2316 C   0  0  0  0  0  0  0  0  0  0  0  0
    9.4533   14.7019  -18.4126 C   0  0  0  0  0  0  0  0  0  0  0  0
    9.9363   16.9224  -16.8075 C   0  0  0  0  0  0  0  0  0  0  0  0
    9.8876   13.0290  -19.8044 C   0  0  0  0  0  0  0  0  0  0  0  0
   12.1476   11.2181  -20.2729 O   0  0  0  0  0  0  0  0  0  0  0  0
    8.6229   16.6802  -17.1266 C   0  0  0  0  0  0  0  0  0  0  0  0
    9.0044   13.8182  -19.3039 C   0  0  0  0  0  0  0  0  0  0  0  0
   13.2614   13.0096  -20.8488 O   0  0  0  0  0  0  0  0  0  0  0  0
   17.0951   15.1274  -17.7744 C   0  0  0  0  0  0  0  0  0  0  0  0
    8.3449   15.6056  -17.9397 N   0  0  0  0  0  0  0  0  0  0  0  0
  1  2  1  0
  2  3  2  0
  3  4  1  0
  4  5  2  0
  1  6  2  0
  4  7  1  0
  3  8  1  0
  7  9  1  0
  9 10  2  0
 10 11  1  0
  9 12  1  0
 12 13  1  0
 12 14  2  0
 13 15  2  0
 10 16  1  0
 11 17  1  0
 15 18  1  0
 14 19  1  0
 16 19  2  0
 11 20  2  0
  6 21  1  0
  8 21  2  0
 14 22  1  0
 18 22  2  0
M  END
$$$$

     RDKit          3D

 22 24  0  0  0  0  0  0  0  0999 V2000
   17.0550   13.7902  -15.7944 C   0  0  0  0  0  0  0  0  0  0  0  0
   15.8599   13.4015  -16.0331 C   0  0  0  0  0  0  0  0  0  0  0  0
   15.1524   13.7648  -17.2038 C   0  0  0  0  0  0  0  0  0  0  0  0
   13.7852   13.3829  -17.4515 C   0  0  0  0  0  0  0  0  0  0  0  0
   13.2804   12.3145  -17.0143 O   0  0  0  0  0  0  0  0  0  0  0  0
   12.9183   14.2494  -18.0791 N   0  0  0  0  0  0  0  0  0  0  0  0
   13.4282   15.4615  -18.7322 C   0  0  0  0  0  0  0  0  0  0  0  0
   13.6328   15.3786  -19.9673 C   0  0  0  0  0  0  0  0  0  0  0  0
   11.5217   14.1631  -17.8123 C   0  0  0  0  0  0  0  0  0  0  0  0
   14.0737   16.4766  -20.7295 C   0  0  0  0  0  0  0  0  0  0  0  0
   17.7275   14.7871  -16.5788 C   0  0  0  0  0  0  0  0  0  0  0  0
   15.8543   14.8480  -17.9586 C   0  0  0  0  0  0  0  0  0  0  0  0
   10.8400   14.8834  -16.9387 C   0  0  0  0  0  0  0  0  0  0  0  0
   14.1641   17.7542  -20.1539 C   0  0  0  0  0  0  0  0  0  0  0  0
   13.6140   16.6939  -17.9908 C   0  0  0  0  0  0  0  0  0  0  0  0
   11.4768   15.7469  -16.0683 C   0  0  0  0  0  0  0  0  0  0  0  0
   14.5285   18.8849  -20.8599 O   0  0  0  0  0  0  0  0  0  0  0  0
   10.6436   16.9124  -15.8052 C   0  0  0  0  0  0  0  0  0  0  0  0
   13.9260   17.8305  -18.7606 C   0  0  0  0  0  0  0  0  0  0  0  0
   17.1151   15.1968  -17.6937 C   0  0  0  0  0  0  0  0  0  0  0  0
    9.3201   16.7005  -16.3656 C   0  0  0  0  0  0  0  0  0  0  0  0
    9.5301   15.5285  -17.2355 C   0  0  0  0  0  0  0  0  0  0  0  0
  1  2  1  0
  2  3  2  0
  3  4  1  0
  4  5  2  0
  4  6  1  0
  6  7  1  0
  7  8  1  0
  6  9  1  0
  8 10  2  0
  1 11  2  0
  3 12  1  0
  9 13  1  0
 10 14  1  0
  7 15  2  0
 13 16  1  0
 14 17  1  0
 16 18  2  0
 14 19  2  0
 15 19  1  0
 11 20  1  0
 12 20  2  0
 18 21  1  0
 13 22  1  0
 21 22  1  0
M  END
$$$$

     RDKit          3D

 22 25  0  0  0  0  0  0  0  0999 V2000
   16.9164   12.9958  -15.1088 C   0  0  0  0  0  0  0  0  0  0  0  0
   15.8006   12.6958  -15.6501 C   0  0  0  0  0  0  0  0  0  0  0  0
   15.3466   13.2197  -16.8853 C   0  0  0  0  0  0  0  0  0  0  0  0
   16.2086   14.1110  -17.5095 C   0  0  0  0  0  0  0  0  0  0  0  0
   15.8132   14.7316  -18.7939 C   0  0  0  0  0  0  0  0  0  0  0  0
   16.5818   15.5541  -19.3484 C   0  0  0  0  0  0  0  0  0  0  0  0
   14.3665   14.6202  -19.1492 C   0  0  0  0  0  0  0  0  0  0  0  0
   17.3525   14.6068  -16.8718 C   0  0  0  0  0  0  0  0  0  0  0  0
   18.1291   15.6475  -17.5524 C   0  0  0  0  0  0  0  0  0  0  0  0
   17.7402   14.0361  -15.5963 C   0  0  0  0  0  0  0  0  0  0  0  0
   13.4059   15.4166  -18.7301 C   0  0  0  0  0  0  0  0  0  0  0  0
   13.9308   13.3199  -19.5801 C   0  0  0  0  0  0  0  0  0  0  0  0
   17.8186   16.0836  -18.8067 C   0  0  0  0  0  0  0  0  0  0  0  0
   13.4995   16.7040  -18.2022 C   0  0  0  0  0  0  0  0  0  0  0  0
   14.6846   12.1731  -20.1672 C   0  0  0  0  0  0  0  0  0  0  0  0
   12.4797   17.2232  -17.5410 C   0  0  0  0  0  0  0  0  0  0  0  0
   12.0627   14.9452  -19.0364 C   0  0  0  0  0  0  0  0  0  0  0  0
   10.8840   15.5821  -18.5714 C   0  0  0  0  0  0  0  0  0  0  0  0
   11.1088   16.8008  -17.7459 C   0  0  0  0  0  0  0  0  0  0  0  0
   11.9913   13.6042  -19.6103 C   0  0  0  0  0  0  0  0  0  0  0  0
   10.0617   17.2045  -17.3133 O   0  0  0  0  0  0  0  0  0  0  0  0
   11.3841   12.8306  -20.0448 O   0  0  0  0  0  0  0  0  0  0  0  0
  1  2  1  0
  2  3  2  0
  3  4  1  0
  4  5  1  0
  5  6  2  0
  5  7  1  0
  4  8  2  0
  8  9  1  0
  1 10  2  0
  8 10  1  0
  7 11  1  0
  7 12  2  0
  6 13  1  0
  9 13  2  0
 11 14  1  0
 12 15  1  0
 14 16  1  0
 11 17  2  0
 17 18  1  0
 16 19  1  0
 18 19  1  0
 12 20  1  0
 17 20  1  0
 19 21  2  0
 20 22  2  0
M  END
$$$$

     RDKit          3D

 22 24  0  0  0  0  0  0  0  0999 V2000
   16.9164   12.9958  -15.1088 C   0  0  0  0  0  0  0  0  0  0  0  0
   15.8006   12.6958  -15.6501 C   0  0  0  0  0  0  0  0  0  0  0  0
   14.7476   11.9962  -15.0575 F   0  0  0  0  0  0  0  0  0  0  0  0
   15.4503   13.0624  -17.0348 C   0  0  0  0  0  0  0  0  0  0  0  0
   14.1512   12.8538  -17.5695 C   0  0  0  0  0  0  0  0  0  0  0  0
   16.4463   13.6871  -17.7949 C   0  0  0  0  0  0  0  0  0  0  0  0
   14.0229   13.0870  -18.9051 C   0  0  0  0  0  0  0  0  0  0  0  0
   12.7797   13.5659  -19.3622 N   0  0  0  0  0  0  0  0  0  0  0  0
   12.5892   14.1908  -20.4406 C   0  0  0  0  0  0  0  0  0  0  0  0
   11.2299   14.6467  -20.7999 C   0  0  0  0  0  0  0  0  0  0  0  0
   13.5768   15.1171  -20.8418 O   0  0  0  0  0  0  0  0  0  0  0  0
   16.3044   14.1641  -19.0894 C   0  0  0  0  0  0  0  0  0  0  0  0
   17.7706   14.0174  -16.9634 C   0  0  0  0  0  0  0  0  0  0  0  0
   10.4624   15.3121  -19.8683 C   0  0  0  0  0  0  0  0  0  0  0  0
   18.6536   14.8967  -17.7404 F   0  0  0  0  0  0  0  0  0  0  0  0
   10.5771   16.4904  -19.4651 C   0  0  0  0  0  0  0  0  0  0  0  0
    9.8803   14.4278  -18.7562 C   0  0  0  0  0  0  0  0  0  0  0  0
   17.8733   13.7408  -15.7417 C   0  0  0  0  0  0  0  0  0  0  0  0
    9.3204   15.3532  -17.8102 C   0  0  0  0  0  0  0  0  0  0  0  0
   14.9540   14.1516  -19.5210 C   0  0  0  0  0  0  0  0  0  0  0  0
    9.7551   16.6548  -18.2216 N   0  0  0  0  0  0  0  0  0  0  0  0
    8.7344   14.9938  -16.6859 C   0  0  0  0  0  0  0  0  0  0  0  0
  1  2  2  0
  2  3  1  0
  2  4  1  0
  4  5  1  0
  4  6  2  0
  5  7  1  0
  7  8  1  0
  8  9  1  0
  9 10  1  0
  9 11  2  0
  6 12  1  0
  6 13  1  0
 10 14  1  0
 13 15  1  0
 14 16  1  0
 14 17  2  0
  1 18  1  0
 13 18  2  0
 17 19  1  0
  7 20  1  0
 12 20  1  0
 16 21  1  0
 19 21  2  0
 19 22  1  0
M  END
$$$$

     RDKit          3D

 22 24  0  0  0  0  0  0  0  0999 V2000
   17.0550   13.7902  -15.7944 C   0  0  0  0  0  0  0  0  0  0  0  0
   15.8599   13.4015  -16.0331 C   0  0  0  0  0  0  0  0  0  0  0  0
   15.1524   13.7648  -17.2038 C   0  0  0  0  0  0  0  0  0  0  0  0
   13.7852   13.3829  -17.4515 C   0  0  0  0  0  0  0  0  0  0  0  0
   13.2804   12.3145  -17.0143 O   0  0  0  0  0  0  0  0  0  0  0  0
   17.7070   14.7918  -16.5460 C   0  0  0  0  0  0  0  0  0  0  0  0
   12.9158   14.2466  -18.0725 N   0  0  0  0  0  0  0  0  0  0  0  0
   15.8649   14.6091  -18.0730 C   0  0  0  0  0  0  0  0  0  0  0  0
   11.7312   14.1461  -18.4769 C   0  0  0  0  0  0  0  0  0  0  0  0
   11.3791   13.2612  -19.4547 C   0  0  0  0  0  0  0  0  0  0  0  0
   12.3110   12.4162  -20.2071 C   0  0  0  0  0  0  0  0  0  0  0  0
   10.7389   15.2205  -18.1737 C   0  0  0  0  0  0  0  0  0  0  0  0
   11.0404   16.2538  -17.2316 C   0  0  0  0  0  0  0  0  0  0  0  0
    9.4533   14.7019  -18.4126 C   0  0  0  0  0  0  0  0  0  0  0  0
    9.9363   16.9224  -16.8075 C   0  0  0  0  0  0  0  0  0  0  0  0
    9.8876   13.0290  -19.8044 C   0  0  0  0  0  0  0  0  0  0  0  0
    8.6278   16.6926  -17.1424 C   0  0  0  0  0  0  0  0  0  0  0  0
   17.0956   15.1230  -17.7755 C   0  0  0  0  0  0  0  0  0  0  0  0
   12.1381   11.1790  -20.2143 O   0  0  0  0  0  0  0  0  0  0  0  0
    8.4940   15.6272  -17.8291 C   0  0  0  0  0  0  0  0  0  0  0  0
   13.3881   12.9443  -20.6542 O   0  0  0  0  0  0  0  0  0  0  0  0
    9.0295   13.8305  -19.2841 C   0  0  0  0  0  0  0  0  0  0  0  0
  1  2  1  0
  2  3  2  0
  3  4  1  0
  4  5  2  0
  1  6  2  0
  4  7  1  0
  3  8  1  0
  7  9  1  0
  9 10  2  0
 10 11  1  0
  9 12  1  0
 12 13  1  0
 12 14  2  0
 13 15  2  0
 10 16  1  0
 15 17  1  0
  6 18  1  0
  8 18  2  0
 11 19  1  0
 14 20  1  0
 17 20  2  0
 11 21  2  0
 14 22  1  0
 16 22  2  0
M  END
$$$$

     RDKit          3D

 22 23  0  0  0  0  0  0  0  0999 V2000
   17.0550   13.7902  -15.7944 C   0  0  0  0  0  0  0  0  0  0  0  0
   15.8599   13.4015  -16.0331 C   0  0  0  0  0  0  0  0  0  0  0  0
   15.1524   13.7648  -17.2038 C   0  0  0  0  0  0  0  0  0  0  0  0
   13.7852   13.3829  -17.4515 C   0  0  0  0  0  0  0  0  0  0  0  0
   13.2804   12.3145  -17.0143 O   0  0  0  0  0  0  0  0  0  0  0  0
   12.9183   14.2494  -18.0791 N   0  0  0  0  0  0  0  0  0  0  0  0
   13.4282   15.4615  -18.7322 C   0  0  0  0  0  0  0  0  0  0  0  0
   13.6328   15.3786  -19.9673 C   0  0  0  0  0  0  0  0  0  0  0  0
   11.5217   14.1631  -17.8123 C   0  0  0  0  0  0  0  0  0  0  0  0
   14.0737   16.4766  -20.7295 C   0  0  0  0  0  0  0  0  0  0  0  0
   17.7275   14.7871  -16.5788 C   0  0  0  0  0  0  0  0  0  0  0  0
   10.6940   14.0522  -18.9051 C   0  0  0  0  0  0  0  0  0  0  0  0
   10.9836   14.2927  -16.5337 C   0  0  0  0  0  0  0  0  0  0  0  0
   14.2102   17.7306  -20.1347 O   0  0  0  0  0  0  0  0  0  0  0  0
   16.9984   15.2293  -17.7076 C   0  0  0  0  0  0  0  0  0  0  0  0
   17.6849   16.2235  -18.6089 C   0  0  0  0  0  0  0  0  0  0  0  0
    9.6333   14.5348  -16.4972 C   0  0  0  0  0  0  0  0  0  0  0  0
   11.1902   13.7798  -20.2793 O   0  0  0  0  0  0  0  0  0  0  0  0
    9.2441   14.0731  -18.8439 C   0  0  0  0  0  0  0  0  0  0  0  0
   15.8487   14.8726  -18.0362 C   0  0  0  0  0  0  0  0  0  0  0  0
    8.7630   14.5697  -17.5479 C   0  0  0  0  0  0  0  0  0  0  0  0
   14.6084   16.4500  -22.0569 C   0  0  0  0  0  0  0  0  0  0  0  0
  1  2  1  0
  2  3  2  0
  3  4  1  0
  4  5  2  0
  4  6  1  0
  6  7  1  0
  7  8  1  0
  6  9  1  0
  8 10  2  3
  1 11  2  0
  9 12  2  0
  9 13  1  0
 10 14  1  0
 11 15  1  0
 15 16  1  0
 13 17  2  0
 12 18  1  0
 12 19  1  0
  3 20  1  0
 15 20  2  0
 17 21  1  0
 19 21  2  0
 10 22  1  0
M  END
$$$$

     RDKit          3D

 22 24  0  0  0  0  0  0  0  0999 V2000
   17.0550   13.7902  -15.7944 C   0  0  0  0  0  0  0  0  0  0  0  0
   15.8599   13.4015  -16.0331 C   0  0  0  0  0  0  0  0  0  0  0  0
   15.1524   13.7648  -17.2038 C   0  0  0  0  0  0  0  0  0  0  0  0
   13.7852   13.3829  -17.4515 C   0  0  0  0  0  0  0  0  0  0  0  0
   13.2804   12.3145  -17.0143 O   0  0  0  0  0  0  0  0  0  0  0  0
   12.9183   14.2494  -18.0791 N   0  0  0  0  0  0  0  0  0  0  0  0
   13.4282   15.4615  -18.7322 C   0  0  0  0  0  0  0  0  0  0  0  0
   13.6328   15.3786  -19.9673 C   0  0  0  0  0  0  0  0  0  0  0  0
   11.5217   14.1631  -17.8123 C   0  0  0  0  0  0  0  0  0  0  0  0
   14.0737   16.4766  -20.7295 C   0  0  0  0  0  0  0  0  0  0  0  0
   17.7275   14.7871  -16.5788 C   0  0  0  0  0  0  0  0  0  0  0  0
   10.6940   14.0522  -18.9051 C   0  0  0  0  0  0  0  0  0  0  0  0
   14.2113   17.7330  -20.1083 C   0  0  0  0  0  0  0  0  0  0  0  0
   10.9957   14.5492  -16.5939 C   0  0  0  0  0  0  0  0  0  0  0  0
    9.3133   14.0282  -18.6486 C   0  0  0  0  0  0  0  0  0  0  0  0
   14.6132   18.8638  -20.7867 O   0  0  0  0  0  0  0  0  0  0  0  0
   15.8966   14.6556  -18.0874 C   0  0  0  0  0  0  0  0  0  0  0  0
   17.1287   15.0742  -17.7948 C   0  0  0  0  0  0  0  0  0  0  0  0
    8.7503   14.3894  -17.4718 C   0  0  0  0  0  0  0  0  0  0  0  0
   13.8449   17.8320  -18.7298 C   0  0  0  0  0  0  0  0  0  0  0  0
   13.4089   16.7054  -18.0694 C   0  0  0  0  0  0  0  0  0  0  0  0
    9.6065   14.7025  -16.4070 C   0  0  0  0  0  0  0  0  0  0  0  0
  1  2  1  0
  2  3  2  0
  3  4  1  0
  4  5  2  0
  4  6  1  0
  6  7  1  0
  7  8  1  0
  6  9  1  0
  8 10  2  0
  1 11  2  0
  9 12  1  0
 10 13  1  0
  9 14  2  0
 12 15  2  0
 13 16  1  0
  3 17  1  0
 11 18  1  0
 17 18  2  0
 15 19  1  0
 13 20  2  0
  7 21  2  0
 20 21  1  0
 14 22  1  0
 19 22  2  0
M  END
$$$$

     RDKit          3D

 22 24  0  0  0  0  0  0  0  0999 V2000
   17.0550   13.7902  -15.7944 C   0  0  0  0  0  0  0  0  0  0  0  0
   15.8599   13.4015  -16.0331 C   0  0  0  0  0  0  0  0  0  0  0  0
   15.1524   13.7648  -17.2038 C   0  0  0  0  0  0  0  0  0  0  0  0
   13.7852   13.3829  -17.4515 C   0  0  0  0  0  0  0  0  0  0  0  0
   13.2804   12.3145  -17.0143 O   0  0  0  0  0  0  0  0  0  0  0  0
   12.9183   14.2494  -18.0791 N   0  0  0  0  0  0  0  0  0  0  0  0
   13.4282   15.4615  -18.7322 C   0  0  0  0  0  0  0  0  0  0  0  0
   13.6328   15.3786  -19.9673 C   0  0  0  0  0  0  0  0  0  0  0  0
   11.5217   14.1631  -17.8123 C   0  0  0  0  0  0  0  0  0  0  0  0
   14.0737   16.4766  -20.7295 C   0  0  0  0  0  0  0  0  0  0  0  0
   17.7275   14.7871  -16.5788 C   0  0  0  0  0  0  0  0  0  0  0  0
   10.6940   14.0522  -18.9051 C   0  0  0  0  0  0  0  0  0  0  0  0
   14.2134   17.7276  -20.1122 C   0  0  0  0  0  0  0  0  0  0  0  0
   15.7799   14.8966  -17.9601 C   0  0  0  0  0  0  0  0  0  0  0  0
   13.6316   16.6996  -18.0246 C   0  0  0  0  0  0  0  0  0  0  0  0
   11.0118   14.5098  -16.5727 C   0  0  0  0  0  0  0  0  0  0  0  0
   18.9612   15.2332  -16.2059 F   0  0  0  0  0  0  0  0  0  0  0  0
    9.6134   14.6235  -16.4171 C   0  0  0  0  0  0  0  0  0  0  0  0
   17.0838   15.2379  -17.6883 C   0  0  0  0  0  0  0  0  0  0  0  0
    9.2942   14.0168  -18.7338 C   0  0  0  0  0  0  0  0  0  0  0  0
    8.7547   14.3208  -17.4758 C   0  0  0  0  0  0  0  0  0  0  0  0
   13.8664   17.8413  -18.8284 C   0  0  0  0  0  0  0  0  0  0  0  0
  1  2  1  0
  2  3  2  0
  3  4  1  0
  4  5  2  0
  4  6  1  0
  6  7  1  0
  7  8  1  0
  6  9  1  0
  8 10  2  0
  1 11  2  0
  9 12  2  0
 10 13  1  0
  3 14  1  0
  7 15  2  0
  9 16  1  0
 11 17  1  0
 16 18  2  0
 11 19  1  0
 14 19  2  0
 12 20  1  0
 18 21  1  0
 20 21  2  0
 13 22  2  0
 15 22  1  0
M  END
$$$$

     RDKit          3D

 22 24  0  0  0  0  0  0  0  0999 V2000
   16.9164   12.9958  -15.1088 C   0  0  0  0  0  0  0  0  0  0  0  0
   15.8006   12.6958  -15.6501 C   0  0  0  0  0  0  0  0  0  0  0  0
   14.7476   11.9962  -15.0575 F   0  0  0  0  0  0  0  0  0  0  0  0
   15.4503   13.0624  -17.0348 C   0  0  0  0  0  0  0  0  0  0  0  0
   14.1512   12.8538  -17.5695 C   0  0  0  0  0  0  0  0  0  0  0  0
   16.4463   13.6871  -17.7949 C   0  0  0  0  0  0  0  0  0  0  0  0
   14.0229   13.0870  -18.9051 C   0  0  0  0  0  0  0  0  0  0  0  0
   12.7797   13.5659  -19.3622 N   0  0  0  0  0  0  0  0  0  0  0  0
   12.5892   14.1908  -20.4406 C   0  0  0  0  0  0  0  0  0  0  0  0
   11.2299   14.6467  -20.7999 C   0  0  0  0  0  0  0  0  0  0  0  0
   13.5768   15.1171  -20.8418 O   0  0  0  0  0  0  0  0  0  0  0  0
   16.3044   14.1641  -19.0894 C   0  0  0  0  0  0  0  0  0  0  0  0
   17.7706   14.0174  -16.9634 C   0  0  0  0  0  0  0  0  0  0  0  0
   10.4624   15.3121  -19.8683 C   0  0  0  0  0  0  0  0  0  0  0  0
    9.8533   14.6576  -18.8416 C   0  0  0  0  0  0  0  0  0  0  0  0
   11.0721   16.6033  -19.3031 C   0  0  0  0  0  0  0  0  0  0  0  0
   15.1378   13.6684  -19.7844 C   0  0  0  0  0  0  0  0  0  0  0  0
    9.4336   13.4042  -18.9983 O   0  0  0  0  0  0  0  0  0  0  0  0
   17.8610   13.7540  -15.7311 C   0  0  0  0  0  0  0  0  0  0  0  0
    9.5865   15.2077  -17.5963 C   0  0  0  0  0  0  0  0  0  0  0  0
   11.0660   16.5950  -17.9247 C   0  0  0  0  0  0  0  0  0  0  0  0
    9.9365   16.4312  -17.2591 C   0  0  0  0  0  0  0  0  0  0  0  0
  1  2  2  0
  2  3  1  0
  2  4  1  0
  4  5  1  0
  4  6  2  0
  5  7  1  0
  7  8  1  0
  8  9  1  0
  9 10  1  0
  9 11  2  0
  6 12  1  0
  6 13  1  0
 10 14  1  0
 14 15  1  0
 14 16  1  0
  7 17  1  0
 12 17  1  0
 15 18  2  0
  1 19  1  0
 13 19  2  0
 15 20  1  0
 16 21  1  0
 20 22  1  0
 21 22  1  0
M  END
$$$$

     RDKit          3D

 22 24  0  0  0  0  0  0  0  0999 V2000
   17.0550   13.7902  -15.7944 C   0  0  0  0  0  0  0  0  0  0  0  0
   15.8599   13.4015  -16.0331 C   0  0  0  0  0  0  0  0  0  0  0  0
   15.1013   12.5227  -15.2103 F   0  0  0  0  0  0  0  0  0  0  0  0
   15.0924   14.0422  -17.0268 C   0  0  0  0  0  0  0  0  0  0  0  0
   17.7028   14.7340  -16.5681 C   0  0  0  0  0  0  0  0  0  0  0  0
   13.6815   13.6236  -17.3356 C   0  0  0  0  0  0  0  0  0  0  0  0
   15.7700   14.9619  -17.9285 C   0  0  0  0  0  0  0  0  0  0  0  0
   13.4873   12.7620  -18.2422 O   0  0  0  0  0  0  0  0  0  0  0  0
   12.7448   14.0481  -16.5631 N   0  0  0  0  0  0  0  0  0  0  0  0
   15.0337   15.5338  -19.0817 C   0  0  0  0  0  0  0  0  0  0  0  0
   17.1378   15.3033  -17.5742 C   0  0  0  0  0  0  0  0  0  0  0  0
   11.3429   14.0307  -16.8673 C   0  0  0  0  0  0  0  0  0  0  0  0
   10.5474   14.9445  -16.0329 C   0  0  0  0  0  0  0  0  0  0  0  0
   15.3595   15.1150  -20.2859 N   0  0  0  0  0  0  0  0  0  0  0  0
   14.4122   16.7243  -18.9749 C   0  0  0  0  0  0  0  0  0  0  0  0
    9.1845   14.9939  -16.1868 C   0  0  0  0  0  0  0  0  0  0  0  0
   13.8067   17.4775  -17.9773 C   0  0  0  0  0  0  0  0  0  0  0  0
   14.8807   15.5189  -21.4027 C   0  0  0  0  0  0  0  0  0  0  0  0
   13.9127   17.0015  -20.5087 C   0  0  0  0  0  0  0  0  0  0  0  0
   13.1825   17.8610  -21.0394 C   0  0  0  0  0  0  0  0  0  0  0  0
   12.8818   18.5021  -18.4538 C   0  0  0  0  0  0  0  0  0  0  0  0
   12.6082   18.7309  -19.8695 C   0  0  0  0  0  0  0  0  0  0  0  0
  1  2  1  0
  2  3  1  0
  2  4  2  0
  1  5  2  0
  4  6  1  0
  4  7  1  0
  6  8  2  0
  6  9  1  0
  7 10  1  0
  5 11  1  0
  7 11  2  0
  9 12  1  0
 12 13  1  0
 10 14  2  0
 10 15  1  0
 13 16  2  0
 15 17  1  0
 14 18  1  0
 15 19  2  0
 18 19  1  0
 19 20  1  0
 17 21  2  0
 20 22  2  0
 21 22  1  0
M  END
$$$$

     RDKit          3D

 22 24  0  0  0  0  0  0  0  0999 V2000
   16.9164   12.9958  -15.1088 C   0  0  0  0  0  0  0  0  0  0  0  0
   17.3100   14.0594  -15.5556 C   0  0  0  0  0  0  0  0  0  0  0  0
   15.7150   12.5123  -15.7129 C   0  0  0  0  0  0  0  0  0  0  0  0
   15.1202   13.0473  -16.8329 C   0  0  0  0  0  0  0  0  0  0  0  0
   13.9456   12.5358  -17.4163 C   0  0  0  0  0  0  0  0  0  0  0  0
   15.7427   14.2238  -17.3794 C   0  0  0  0  0  0  0  0  0  0  0  0
   15.1521   14.8467  -18.5270 C   0  0  0  0  0  0  0  0  0  0  0  0
   15.7155   15.8634  -19.0094 O   0  0  0  0  0  0  0  0  0  0  0  0
   14.1149   14.2168  -19.2331 C   0  0  0  0  0  0  0  0  0  0  0  0
   13.5361   14.7709  -20.3606 C   0  0  0  0  0  0  0  0  0  0  0  0
   13.4864   13.1082  -18.5956 C   0  0  0  0  0  0  0  0  0  0  0  0
   12.4414   15.5524  -20.2938 C   0  0  0  0  0  0  0  0  0  0  0  0
   11.8792   16.0689  -21.4091 C   0  0  0  0  0  0  0  0  0  0  0  0
   11.6810   15.8102  -19.0312 C   0  0  0  0  0  0  0  0  0  0  0  0
   18.5193   14.7378  -14.9610 F   0  0  0  0  0  0  0  0  0  0  0  0
   10.6685   16.4668  -19.0839 C   0  0  0  0  0  0  0  0  0  0  0  0
   10.1779   17.0316  -20.3828 C   0  0  0  0  0  0  0  0  0  0  0  0
    9.8779   16.8339  -17.7969 C   0  0  0  0  0  0  0  0  0  0  0  0
   16.9387   14.8040  -16.7295 C   0  0  0  0  0  0  0  0  0  0  0  0
    8.9597   17.8717  -20.2969 O   0  0  0  0  0  0  0  0  0  0  0  0
   10.7711   16.8439  -21.4971 C   0  0  0  0  0  0  0  0  0  0  0  0
   10.1270   15.9111  -16.7825 C   0  0  0  0  0  0  0  0  0  0  0  0
  1  2  1  0
  1  3  2  0
  3  4  1  0
  4  5  1  0
  4  6  2  0
  6  7  1  0
  7  8  2  0
  7  9  1  0
  9 10  1  0
  5 11  1  0
  9 11  2  0
 10 12  1  0
 12 13  2  0
 12 14  1  0
  2 15  1  0
 14 16  2  0
 16 17  1  0
 16 18  1  0
  2 19  2  0
  6 19  1  0
 17 20  1  0
 13 21  1  0
 17 21  2  0
 18 22  1  0
M  END
$$$$
